ZINC00041692
  -OEChem-08230709403D

 30 32  0     0  0  0  0  0  0999 V2000
    1.7949    4.2883    0.9346 C   0  0  0  0  0  0  0  0  0  0  0  0
    1.7324    5.6662    0.9357 C   0  0  0  0  0  0  0  0  0  0  0  0
    0.9197    6.3263    0.0244 C   0  0  0  0  0  0  0  0  0  0  0  0
    0.1712    5.6027   -0.8937 C   0  0  0  0  0  0  0  0  0  0  0  0
    0.2334    4.2248   -0.9033 C   0  0  0  0  0  0  0  0  0  0  0  0
    1.0489    3.5590    0.0102 C   0  0  0  0  0  0  0  0  0  0  0  0
    1.1181    2.0774    0.0025 C   0  0  0  0  0  0  0  0  0  0  0  0
   -0.0160    1.3317    0.0094 C   0  0  0  0  0  0  0  0  0  0  0  0
    0.0021   -0.0041    0.0020 O   0  0  0  0  0  0  0  0  0  0  0  0
    1.1389   -0.7285   -0.0128 C   0  0  0  0  0  0  0  0  0  0  0  0
    1.0904   -2.1152   -0.0203 C   0  0  0  0  0  0  0  0  0  0  0  0
    2.2639   -2.8518   -0.0363 C   0  0  0  0  0  0  0  0  0  0  0  0
    3.5013   -2.2164   -0.0451 C   0  0  0  0  0  0  0  0  0  0  0  0
    3.5719   -0.8360   -0.0374 C   0  0  0  0  0  0  0  0  0  0  0  0
    2.3891   -0.0848   -0.0212 C   0  0  0  0  0  0  0  0  0  0  0  0
    2.4195    1.3863   -0.0131 C   0  0  0  0  0  0  0  0  0  0  0  0
    3.4709    2.0037   -0.0199 O   0  0  0  0  0  0  0  0  0  0  0  0
    4.7775   -0.2131   -0.0451 O   0  0  0  0  0  0  0  0  0  0  0  0
    2.2054   -4.2079   -0.0436 O   0  0  0  0  0  0  0  0  0  0  0  0
    0.8563    7.6839    0.0314 O   0  0  0  0  0  0  0  0  0  0  0  0
    2.4243    3.7751    1.6466 H   0  0  0  0  0  0  0  0  0  0  0  0
    2.3131    6.2319    1.6493 H   0  0  0  0  0  0  0  0  0  0  0  0
   -0.4602    6.1191   -1.6015 H   0  0  0  0  0  0  0  0  0  0  0  0
   -0.3495    3.6624   -1.6177 H   0  0  0  0  0  0  0  0  0  0  0  0
   -0.9700    1.8379    0.0166 H   0  0  0  0  0  0  0  0  0  0  0  0
    0.1363   -2.6213   -0.0136 H   0  0  0  0  0  0  0  0  0  0  0  0
    4.4083   -2.8026   -0.0577 H   0  0  0  0  0  0  0  0  0  0  0  0
    5.1354   -0.0382    0.8361 H   0  0  0  0  0  0  0  0  0  0  0  0
    2.1973   -4.6060    0.8377 H   0  0  0  0  0  0  0  0  0  0  0  0
    0.1672    8.0425    0.6073 H   0  0  0  0  0  0  0  0  0  0  0  0
  1  6  2  0  0  0  0
  1  2  1  0  0  0  0
  1 21  1  0  0  0  0
  2  3  2  0  0  0  0
  2 22  1  0  0  0  0
  3  4  1  0  0  0  0
  3 20  1  0  0  0  0
  4  5  2  0  0  0  0
  4 23  1  0  0  0  0
  5  6  1  0  0  0  0
  5 24  1  0  0  0  0
  6  7  1  0  0  0  0
  7 16  1  0  0  0  0
  7  8  2  0  0  0  0
  8  9  1  0  0  0  0
  8 25  1  0  0  0  0
  9 10  1  0  0  0  0
 10 15  2  0  0  0  0
 10 11  1  0  0  0  0
 11 12  2  0  0  0  0
 11 26  1  0  0  0  0
 12 13  1  0  0  0  0
 12 19  1  0  0  0  0
 13 14  2  0  0  0  0
 13 27  1  0  0  0  0
 14 15  1  0  0  0  0
 14 18  1  0  0  0  0
 15 16  1  0  0  0  0
 16 17  2  0  0  0  0
 18 28  1  0  0  0  0
 19 29  1  0  0  0  0
 20 30  1  0  0  0  0
M  END
$$$$
