ZINC03815421
  -OEChem-08230709403D

 51 54  0     1  0  0  0  0  0999 V2000
    2.0789    0.7613   -3.7111 C   0  0  0  0  0  0  0  0  0  0  0  0
    1.4053    1.4637   -2.5306 C   0  0  1  0  0  0  0  0  0  0  0  0
   -0.0407    1.0256   -2.4793 C   0  0  0  0  0  0  0  0  0  0  0  0
   -0.7392    1.5926   -1.2452 C   0  0  0  0  0  0  0  0  0  0  0  0
   -0.0127    1.0858    0.0080 C   0  0  1  0  0  0  0  0  0  0  0  0
    0.0021   -0.0041    0.0020 H   0  0  0  0  0  0  0  0  0  0  0  0
    1.4183    1.6118   -0.0028 C   0  0  2  0  0  0  0  0  0  0  0  0
    1.4058    2.7015    0.0147 H   0  0  0  0  0  0  0  0  0  0  0  0
    2.1770    1.1288   -1.2429 C   0  0  2  0  0  0  0  0  0  0  0  0
    2.4429    0.0739   -1.1748 H   0  0  0  0  0  0  0  0  0  0  0  0
    3.4281    2.0470   -1.3795 C   0  0  0  0  0  0  0  0  0  0  0  0
    2.8612    3.3583   -1.9667 C   0  0  0  0  0  0  0  0  0  0  0  0
    1.5578    2.9810   -2.7001 C   0  0  2  0  0  0  0  0  0  0  0  0
    1.6338    3.2365   -3.7570 H   0  0  0  0  0  0  0  0  0  0  0  0
    0.4464    3.6571   -2.1088 O   0  0  0  0  0  0  0  0  0  0  0  0
    2.1463    1.0848    1.2403 C   0  0  0  0  0  0  0  0  0  0  0  0
    1.3754    1.4650    2.4696 C   0  0  0  0  0  0  0  0  0  0  0  0
    0.0915    1.6710    2.4637 C   0  0  0  0  0  0  0  0  0  0  0  0
   -0.7667    1.5738    1.2344 C   0  0  2  0  0  0  0  0  0  0  0  0
   -1.9606    0.6580    1.5178 C   0  0  0  0  0  0  0  0  0  0  0  0
   -2.7050    1.1654    2.7547 C   0  0  0  0  0  0  0  0  0  0  0  0
   -1.7850    1.0981    3.9747 C   0  0  1  0  0  0  0  0  0  0  0  0
   -1.4224    0.0779    4.1003 H   0  0  0  0  0  0  0  0  0  0  0  0
   -0.5872    2.0311    3.7747 C   0  0  0  0  0  0  0  0  0  0  0  0
   -2.5108    1.4925    5.1408 O   0  0  0  0  0  0  0  0  0  0  0  0
   -1.3225    2.9657    0.9265 C   0  0  0  0  0  0  0  0  0  0  0  0
    2.0694   -0.3162   -3.5463 H   0  0  0  0  0  0  0  0  0  0  0  0
    1.5381    0.9933   -4.6286 H   0  0  0  0  0  0  0  0  0  0  0  0
    3.1091    1.1062   -3.7994 H   0  0  0  0  0  0  0  0  0  0  0  0
   -0.5535    1.3774   -3.3745 H   0  0  0  0  0  0  0  0  0  0  0  0
   -0.0842   -0.0630   -2.4462 H   0  0  0  0  0  0  0  0  0  0  0  0
   -1.7778    1.2626   -1.2243 H   0  0  0  0  0  0  0  0  0  0  0  0
   -0.6997    2.6815   -1.2755 H   0  0  0  0  0  0  0  0  0  0  0  0
    3.8784    2.2279   -0.4035 H   0  0  0  0  0  0  0  0  0  0  0  0
    4.1557    1.6038   -2.0593 H   0  0  0  0  0  0  0  0  0  0  0  0
    2.6479    4.0654   -1.1651 H   0  0  0  0  0  0  0  0  0  0  0  0
    3.5736    3.7925   -2.6682 H   0  0  0  0  0  0  0  0  0  0  0  0
    0.5022    4.6213   -2.1559 H   0  0  0  0  0  0  0  0  0  0  0  0
    2.2253   -0.0008    1.1823 H   0  0  0  0  0  0  0  0  0  0  0  0
    3.1446    1.5198    1.2885 H   0  0  0  0  0  0  0  0  0  0  0  0
    1.9106    1.5720    3.4015 H   0  0  0  0  0  0  0  0  0  0  0  0
   -2.6340    0.6623    0.6607 H   0  0  0  0  0  0  0  0  0  0  0  0
   -1.6060   -0.3569    1.6974 H   0  0  0  0  0  0  0  0  0  0  0  0
   -3.0170    2.1971    2.5923 H   0  0  0  0  0  0  0  0  0  0  0  0
   -3.5835    0.5443    2.9293 H   0  0  0  0  0  0  0  0  0  0  0  0
    0.1194    1.9188    4.5970 H   0  0  0  0  0  0  0  0  0  0  0  0
   -0.9428    3.0606    3.7335 H   0  0  0  0  0  0  0  0  0  0  0  0
   -1.9884    1.4736    5.9543 H   0  0  0  0  0  0  0  0  0  0  0  0
   -1.9947    2.9073    0.0705 H   0  0  0  0  0  0  0  0  0  0  0  0
   -1.8689    3.3385    1.7929 H   0  0  0  0  0  0  0  0  0  0  0  0
   -0.4998    3.6428    0.6970 H   0  0  0  0  0  0  0  0  0  0  0  0
  1  2  1  0  0  0  0
  1 27  1  0  0  0  0
  1 28  1  0  0  0  0
  1 29  1  0  0  0  0
  2  9  1  0  0  0  0
  2 13  1  0  0  0  0
  2  3  1  0  0  0  0
  3  4  1  0  0  0  0
  3 30  1  0  0  0  0
  3 31  1  0  0  0  0
  4  5  1  0  0  0  0
  4 32  1  0  0  0  0
  4 33  1  0  0  0  0
  5  6  1  0  0  0  0
  5 19  1  0  0  0  0
  5  7  1  0  0  0  0
  7  8  1  0  0  0  0
  7  9  1  0  0  0  0
  7 16  1  0  0  0  0
  9 10  1  0  0  0  0
  9 11  1  0  0  0  0
 11 12  1  0  0  0  0
 11 34  1  0  0  0  0
 11 35  1  0  0  0  0
 12 13  1  0  0  0  0
 12 36  1  0  0  0  0
 12 37  1  0  0  0  0
 13 14  1  0  0  0  0
 13 15  1  0  0  0  0
 15 38  1  0  0  0  0
 16 17  1  0  0  0  0
 16 39  1  0  0  0  0
 16 40  1  0  0  0  0
 17 18  2  0  0  0  0
 17 41  1  0  0  0  0
 18 24  1  0  0  0  0
 18 19  1  0  0  0  0
 19 20  1  0  0  0  0
 19 26  1  0  0  0  0
 20 21  1  0  0  0  0
 20 42  1  0  0  0  0
 20 43  1  0  0  0  0
 21 22  1  0  0  0  0
 21 44  1  0  0  0  0
 21 45  1  0  0  0  0
 22 23  1  0  0  0  0
 22 24  1  0  0  0  0
 22 25  1  0  0  0  0
 24 46  1  0  0  0  0
 24 47  1  0  0  0  0
 25 48  1  0  0  0  0
 26 49  1  0  0  0  0
 26 50  1  0  0  0  0
 26 51  1  0  0  0  0
M  END
$$$$
