ZINC01999257
  -OEChem-08230709403D

 50 53  0     1  0  0  0  0  0999 V2000
   -2.0723    0.8701    1.4790 C   0  0  0  0  0  0  0  0  0  0  0  0
   -0.7269    1.5752    1.2725 C   0  0  1  0  0  0  0  0  0  0  0  0
   -0.0127    1.0868    0.0080 C   0  0  0  0  0  0  0  0  0  0  0  0
   -0.7416    1.5822   -1.2359 C   0  0  1  0  0  0  0  0  0  0  0  0
   -1.8014    1.2809   -1.1581 H   0  0  0  0  0  0  0  0  0  0  0  0
   -0.6950    3.1010   -1.2899 C   0  0  2  0  0  0  0  0  0  0  0  0
   -1.2686    3.4210   -2.1693 H   0  0  0  0  0  0  0  0  0  0  0  0
    0.6788    3.6842   -1.4051 C   0  0  0  0  0  0  0  0  0  0  0  0
    1.6927    2.9885   -2.0422 C   0  0  0  0  0  0  0  0  0  0  0  0
    2.9601    3.5236   -2.1702 C   0  0  0  0  0  0  0  0  0  0  0  0
    3.2326    4.7787   -1.6504 C   0  0  0  0  0  0  0  0  0  0  0  0
    2.2276    5.4748   -1.0053 C   0  0  0  0  0  0  0  0  0  0  0  0
    0.9518    4.9364   -0.8820 C   0  0  0  0  0  0  0  0  0  0  0  0
   -0.0646    5.7747   -0.1629 C   0  0  0  0  0  0  0  0  0  0  0  0
   -1.4505    5.1646   -0.1043 C   0  0  0  0  0  0  0  0  0  0  0  0
   -1.4178    3.6423   -0.0603 C   0  0  2  0  0  0  0  0  0  0  0  0
   -2.4694    3.2925   -0.1426 H   0  0  0  0  0  0  0  0  0  0  0  0
   -0.8848    3.1071    1.2402 C   0  0  2  0  0  0  0  0  0  0  0  0
   -1.5863    3.3888    2.0376 H   0  0  0  0  0  0  0  0  0  0  0  0
    0.5091    3.6233    1.6282 C   0  0  0  0  0  0  0  0  0  0  0  0
    0.9310    2.6594    2.7659 C   0  0  0  0  0  0  0  0  0  0  0  0
    0.2296    1.3225    2.4667 C   0  0  1  0  0  0  0  0  0  0  0  0
   -0.5429    0.8879    3.6447 C   0  0  0  0  0  0  0  0  0  0  0  0
   -1.1581    0.5418    4.5828 C   0  0  0  0  0  0  0  0  0  0  0  0
    1.1961    0.3248    2.1304 O   0  0  0  0  0  0  0  0  0  0  0  0
    4.4732    5.3188   -1.7729 O   0  0  0  0  0  0  0  0  0  0  0  0
   -0.2233    0.9834   -2.4150 O   0  0  0  0  0  0  0  0  0  0  0  0
   -0.8721   -0.2360   -2.7811 C   0  0  0  0  0  0  0  0  0  0  0  0
   -1.9105   -0.2047    1.5604 H   0  0  0  0  0  0  0  0  0  0  0  0
   -2.5386    1.2376    2.3931 H   0  0  0  0  0  0  0  0  0  0  0  0
   -2.7245    1.0762    0.6303 H   0  0  0  0  0  0  0  0  0  0  0  0
    0.0021   -0.0041    0.0020 H   0  0  0  0  0  0  0  0  0  0  0  0
    1.0102    1.4608    0.0003 H   0  0  0  0  0  0  0  0  0  0  0  0
    1.5306    2.0082   -2.4581 H   0  0  0  0  0  0  0  0  0  0  0  0
    3.7320    2.9636   -2.6768 H   0  0  0  0  0  0  0  0  0  0  0  0
    2.4330    6.4504   -0.5884 H   0  0  0  0  0  0  0  0  0  0  0  0
    0.2912    5.9794    0.8506 H   0  0  0  0  0  0  0  0  0  0  0  0
   -0.1310    6.7467   -0.6749 H   0  0  0  0  0  0  0  0  0  0  0  0
   -1.9714    5.5404    0.7891 H   0  0  0  0  0  0  0  0  0  0  0  0
   -2.0306    5.4950   -0.9768 H   0  0  0  0  0  0  0  0  0  0  0  0
    1.2092    3.5424    0.8006 H   0  0  0  0  0  0  0  0  0  0  0  0
    0.4579    4.6432    2.0070 H   0  0  0  0  0  0  0  0  0  0  0  0
    0.6009    3.0518    3.7268 H   0  0  0  0  0  0  0  0  0  0  0  0
    2.0116    2.5287    2.7603 H   0  0  0  0  0  0  0  0  0  0  0  0
   -1.7083    0.2323    5.4218 H   0  0  0  0  0  0  0  0  0  0  0  0
    1.8207    0.1268    2.8416 H   0  0  0  0  0  0  0  0  0  0  0  0
    5.0689    5.1059   -1.0415 H   0  0  0  0  0  0  0  0  0  0  0  0
   -0.4189   -0.6299   -3.6908 H   0  0  0  0  0  0  0  0  0  0  0  0
   -0.7614   -0.9624   -1.9760 H   0  0  0  0  0  0  0  0  0  0  0  0
   -1.9311   -0.0458   -2.9558 H   0  0  0  0  0  0  0  0  0  0  0  0
  1  2  1  0  0  0  0
  1 29  1  0  0  0  0
  1 30  1  0  0  0  0
  1 31  1  0  0  0  0
  2 18  1  0  0  0  0
  2 22  1  0  0  0  0
  2  3  1  0  0  0  0
  3  4  1  0  0  0  0
  3 32  1  0  0  0  0
  3 33  1  0  0  0  0
  4  5  1  0  0  0  0
  4  6  1  0  0  0  0
  4 27  1  0  0  0  0
  6  7  1  0  0  0  0
  6 16  1  0  0  0  0
  6  8  1  0  0  0  0
  8 13  2  0  0  0  0
  8  9  1  0  0  0  0
  9 10  2  0  0  0  0
  9 34  1  0  0  0  0
 10 11  1  0  0  0  0
 10 35  1  0  0  0  0
 11 12  2  0  0  0  0
 11 26  1  0  0  0  0
 12 13  1  0  0  0  0
 12 36  1  0  0  0  0
 13 14  1  0  0  0  0
 14 15  1  0  0  0  0
 14 37  1  0  0  0  0
 14 38  1  0  0  0  0
 15 16  1  0  0  0  0
 15 39  1  0  0  0  0
 15 40  1  0  0  0  0
 16 17  1  0  0  0  0
 16 18  1  0  0  0  0
 18 19  1  0  0  0  0
 18 20  1  0  0  0  0
 20 21  1  0  0  0  0
 20 41  1  0  0  0  0
 20 42  1  0  0  0  0
 21 22  1  0  0  0  0
 21 43  1  0  0  0  0
 21 44  1  0  0  0  0
 22 23  1  0  0  0  0
 22 25  1  0  0  0  0
 23 24  3  0  0  0  0
 24 45  1  0  0  0  0
 25 46  1  0  0  0  0
 26 47  1  0  0  0  0
 27 28  1  0  0  0  0
 28 48  1  0  0  0  0
 28 49  1  0  0  0  0
 28 50  1  0  0  0  0
M  END
$$$$
