ZINC03814415
  -OEChem-08230709403D

 48 51  0     1  0  0  0  0  0999 V2000
   -1.2897    4.0120   -0.1419 C   0  0  0  0  0  0  0  0  0  0  0  0
   -0.7191    3.5729    1.2081 C   0  0  2  0  0  0  0  0  0  0  0  0
    0.7074    4.0685    1.3488 C   0  0  0  0  0  0  0  0  0  0  0  0
    1.4841    3.5663    0.1214 C   0  0  0  0  0  0  0  0  0  0  0  0
    1.4264    2.0466   -0.0006 C   0  0  1  0  0  0  0  0  0  0  0  0
    1.9658    1.6115    0.8407 H   0  0  0  0  0  0  0  0  0  0  0  0
   -0.0187    1.5275    0.0104 C   0  0  2  0  0  0  0  0  0  0  0  0
   -0.5546    1.8977   -0.8636 H   0  0  0  0  0  0  0  0  0  0  0  0
   -0.6745    2.0232    1.2865 C   0  0  2  0  0  0  0  0  0  0  0  0
   -0.1016    1.7021    2.1564 H   0  0  0  0  0  0  0  0  0  0  0  0
   -2.1592    1.6784    1.4488 C   0  0  0  0  0  0  0  0  0  0  0  0
   -2.6588    2.7552    2.4503 C   0  0  0  0  0  0  0  0  0  0  0  0
   -1.6847    3.9532    2.3258 C   0  0  1  0  0  0  0  0  0  0  0  0
   -0.9527    4.1487    3.5878 C   0  0  0  0  0  0  0  0  0  0  0  0
   -0.3688    4.3047    4.5943 C   0  0  0  0  0  0  0  0  0  0  0  0
   -2.4011    5.1400    1.9788 O   0  0  0  0  0  0  0  0  0  0  0  0
    0.0021   -0.0041    0.0020 C   0  0  0  0  0  0  0  0  0  0  0  0
    0.6015   -0.4904   -1.3192 C   0  0  0  0  0  0  0  0  0  0  0  0
    1.9698    0.1419   -1.4981 C   0  0  0  0  0  0  0  0  0  0  0  0
    2.9832   -0.6571   -1.8319 C   0  0  0  0  0  0  0  0  0  0  0  0
    4.3240   -0.0973   -2.0338 C   0  0  0  0  0  0  0  0  0  0  0  0
    5.3209   -0.7849   -1.9601 O   0  0  0  0  0  0  0  0  0  0  0  0
    4.3982    1.3858   -2.3400 C   0  0  0  0  0  0  0  0  0  0  0  0
    3.5479    2.1105   -1.2976 C   0  0  0  0  0  0  0  0  0  0  0  0
    2.1106    1.6205   -1.3054 C   0  0  2  0  0  0  0  0  0  0  0  0
    1.5889    2.1186   -2.1226 H   0  0  0  0  0  0  0  0  0  0  0  0
   -0.6900    3.5854   -0.9459 H   0  0  0  0  0  0  0  0  0  0  0  0
   -2.3186    3.6638   -0.2321 H   0  0  0  0  0  0  0  0  0  0  0  0
   -1.2669    5.0997   -0.2095 H   0  0  0  0  0  0  0  0  0  0  0  0
    1.1520    3.6671    2.2595 H   0  0  0  0  0  0  0  0  0  0  0  0
    0.7210    5.1581    1.3768 H   0  0  0  0  0  0  0  0  0  0  0  0
    2.5254    3.8766    0.2084 H   0  0  0  0  0  0  0  0  0  0  0  0
    1.0546    4.0115   -0.7761 H   0  0  0  0  0  0  0  0  0  0  0  0
   -2.2796    0.6785    1.8657 H   0  0  0  0  0  0  0  0  0  0  0  0
   -2.6840    1.7637    0.4973 H   0  0  0  0  0  0  0  0  0  0  0  0
   -2.6378    2.3599    3.4659 H   0  0  0  0  0  0  0  0  0  0  0  0
   -3.6706    3.0672    2.1915 H   0  0  0  0  0  0  0  0  0  0  0  0
    0.1534    4.4441    5.4945 H   0  0  0  0  0  0  0  0  0  0  0  0
   -3.0309    5.4304    2.6527 H   0  0  0  0  0  0  0  0  0  0  0  0
    0.6093   -0.3648    0.8322 H   0  0  0  0  0  0  0  0  0  0  0  0
   -1.0150   -0.3828    0.1031 H   0  0  0  0  0  0  0  0  0  0  0  0
    0.7005   -1.5756   -1.2979 H   0  0  0  0  0  0  0  0  0  0  0  0
   -0.0472   -0.1969   -2.1446 H   0  0  0  0  0  0  0  0  0  0  0  0
    2.8170   -1.7173   -1.9535 H   0  0  0  0  0  0  0  0  0  0  0  0
    4.0477    1.5539   -3.2614 H   0  0  0  0  0  0  0  0  0  0  0  0
    5.4318    1.7260   -2.2766 H   0  0  0  0  0  0  0  0  0  0  0  0
    3.5601    3.1796   -1.5099 H   0  0  0  0  0  0  0  0  0  0  0  0
    3.9763    1.9396   -0.3100 H   0  0  0  0  0  0  0  0  0  0  0  0
  1  2  1  0  0  0  0
  1 27  1  0  0  0  0
  1 28  1  0  0  0  0
  1 29  1  0  0  0  0
  2  9  1  0  0  0  0
  2 13  1  0  0  0  0
  2  3  1  0  0  0  0
  3  4  1  0  0  0  0
  3 30  1  0  0  0  0
  3 31  1  0  0  0  0
  4  5  1  0  0  0  0
  4 32  1  0  0  0  0
  4 33  1  0  0  0  0
  5  6  1  0  0  0  0
  5 25  1  0  0  0  0
  5  7  1  0  0  0  0
  7  8  1  0  0  0  0
  7  9  1  0  0  0  0
  7 17  1  0  0  0  0
  9 10  1  0  0  0  0
  9 11  1  0  0  0  0
 11 12  1  0  0  0  0
 11 34  1  0  0  0  0
 11 35  1  0  0  0  0
 12 13  1  0  0  0  0
 12 36  1  0  0  0  0
 12 37  1  0  0  0  0
 13 14  1  0  0  0  0
 13 16  1  0  0  0  0
 14 15  3  0  0  0  0
 15 38  1  0  0  0  0
 16 39  1  0  0  0  0
 17 18  1  0  0  0  0
 17 40  1  0  0  0  0
 17 41  1  0  0  0  0
 18 19  1  0  0  0  0
 18 42  1  0  0  0  0
 18 43  1  0  0  0  0
 19 25  1  0  0  0  0
 19 20  2  0  0  0  0
 20 21  1  0  0  0  0
 20 44  1  0  0  0  0
 21 22  2  0  0  0  0
 21 23  1  0  0  0  0
 23 24  1  0  0  0  0
 23 45  1  0  0  0  0
 23 46  1  0  0  0  0
 24 25  1  0  0  0  0
 24 47  1  0  0  0  0
 24 48  1  0  0  0  0
 25 26  1  0  0  0  0
M  END
$$$$
