ZINC03815444
  -OEChem-08230709403D

 37 39  0     0  0  0  0  0  0999 V2000
   -3.8782    4.1089    2.9305 C   0  0  0  0  0  0  0  0  0  0  0  0
   -3.6355    2.6166    3.1649 C   0  0  0  0  0  0  0  0  0  0  0  0
   -2.3108    2.2515    2.6569 N   0  0  0  0  0  0  0  0  0  0  0  0
   -1.1441    2.2859    3.3891 C   0  0  0  0  0  0  0  0  0  0  0  0
   -0.8548    2.6361    4.7034 C   0  0  0  0  0  0  0  0  0  0  0  0
    0.4476    2.5662    5.1617 C   0  0  0  0  0  0  0  0  0  0  0  0
    1.4740    2.1480    4.3179 C   0  0  0  0  0  0  0  0  0  0  0  0
    1.2085    1.7992    3.0249 C   0  0  0  0  0  0  0  0  0  0  0  0
   -0.1020    1.8637    2.5419 C   0  0  0  0  0  0  0  0  0  0  0  0
   -0.7181    1.5718    1.2479 C   0  0  0  0  0  0  0  0  0  0  0  0
   -2.0436    1.8273    1.3744 C   0  0  0  0  0  0  0  0  0  0  0  0
   -3.0485    1.6712    0.3011 C   0  0  0  0  0  0  0  0  0  0  0  0
   -4.2670    1.0450    0.5689 C   0  0  0  0  0  0  0  0  0  0  0  0
   -5.2032    0.9057   -0.4333 C   0  0  0  0  0  0  0  0  0  0  0  0
   -4.9314    1.3782   -1.7104 C   0  0  0  0  0  0  0  0  0  0  0  0
   -3.7183    1.9969   -1.9822 C   0  0  0  0  0  0  0  0  0  0  0  0
   -2.7788    2.1444   -0.9842 C   0  0  0  0  0  0  0  0  0  0  0  0
   -5.8546    1.2343   -2.6969 O   0  0  0  0  0  0  0  0  0  0  0  0
   -0.0127    1.0858    0.0080 C   0  0  0  0  0  0  0  0  0  0  0  0
    0.7292    2.9088    6.4467 O   0  0  0  0  0  0  0  0  0  0  0  0
   -3.1165    4.6874    3.4533 H   0  0  0  0  0  0  0  0  0  0  0  0
   -3.8272    4.3220    1.8628 H   0  0  0  0  0  0  0  0  0  0  0  0
   -4.8638    4.3805    3.3085 H   0  0  0  0  0  0  0  0  0  0  0  0
   -4.3972    2.0381    2.6422 H   0  0  0  0  0  0  0  0  0  0  0  0
   -3.6866    2.4035    4.2327 H   0  0  0  0  0  0  0  0  0  0  0  0
   -1.6448    2.9620    5.3638 H   0  0  0  0  0  0  0  0  0  0  0  0
    2.4869    2.0985    4.6894 H   0  0  0  0  0  0  0  0  0  0  0  0
    2.0091    1.4757    2.3762 H   0  0  0  0  0  0  0  0  0  0  0  0
   -4.4775    0.6736    1.5610 H   0  0  0  0  0  0  0  0  0  0  0  0
   -6.1477    0.4247   -0.2259 H   0  0  0  0  0  0  0  0  0  0  0  0
   -3.5105    2.3627   -2.9769 H   0  0  0  0  0  0  0  0  0  0  0  0
   -1.8353    2.6250   -1.1965 H   0  0  0  0  0  0  0  0  0  0  0  0
   -5.7711    0.4107   -3.1968 H   0  0  0  0  0  0  0  0  0  0  0  0
    0.0021   -0.0041    0.0020 H   0  0  0  0  0  0  0  0  0  0  0  0
    1.0099    1.4631    0.0003 H   0  0  0  0  0  0  0  0  0  0  0  0
   -0.5399    1.4469   -0.8751 H   0  0  0  0  0  0  0  0  0  0  0  0
    0.6769    2.1719    7.0707 H   0  0  0  0  0  0  0  0  0  0  0  0
  1  2  1  0  0  0  0
  1 21  1  0  0  0  0
  1 22  1  0  0  0  0
  1 23  1  0  0  0  0
  2  3  1  0  0  0  0
  2 24  1  0  0  0  0
  2 25  1  0  0  0  0
  3 11  1  0  0  0  0
  3  4  1  0  0  0  0
  4  9  2  0  0  0  0
  4  5  1  0  0  0  0
  5  6  2  0  0  0  0
  5 26  1  0  0  0  0
  6  7  1  0  0  0  0
  6 20  1  0  0  0  0
  7  8  2  0  0  0  0
  7 27  1  0  0  0  0
  8  9  1  0  0  0  0
  8 28  1  0  0  0  0
  9 10  1  0  0  0  0
 10 11  2  0  0  0  0
 10 19  1  0  0  0  0
 11 12  1  0  0  0  0
 12 17  2  0  0  0  0
 12 13  1  0  0  0  0
 13 14  2  0  0  0  0
 13 29  1  0  0  0  0
 14 15  1  0  0  0  0
 14 30  1  0  0  0  0
 15 16  2  0  0  0  0
 15 18  1  0  0  0  0
 16 17  1  0  0  0  0
 16 31  1  0  0  0  0
 17 32  1  0  0  0  0
 18 33  1  0  0  0  0
 19 34  1  0  0  0  0
 19 35  1  0  0  0  0
 19 36  1  0  0  0  0
 20 37  1  0  0  0  0
M  END
$$$$
