ZINC03815449
  -OEChem-08230709403D

 47 50  0     1  0  0  0  0  0999 V2000
   -2.5064    5.0104    2.1570 C   0  0  0  0  0  0  0  0  0  0  0  0
   -3.1882    4.1554    1.0869 C   0  0  2  0  0  0  0  0  0  0  0  0
   -3.2302    2.6739    1.4704 C   0  0  0  0  0  0  0  0  0  0  0  0
   -1.8321    2.0660    1.4012 C   0  0  2  0  0  0  0  0  0  0  0  0
   -1.1591    2.6237    2.0524 H   0  0  0  0  0  0  0  0  0  0  0  0
   -1.3273    2.1416   -0.0445 C   0  0  2  0  0  0  0  0  0  0  0  0
   -2.0148    1.6124   -0.7043 H   0  0  0  0  0  0  0  0  0  0  0  0
    0.0357    1.4989   -0.1149 C   0  0  0  0  0  0  0  0  0  0  0  0
    0.0944    0.1115   -0.1492 C   0  0  0  0  0  0  0  0  0  0  0  0
    1.3093   -0.5381   -0.1975 C   0  0  0  0  0  0  0  0  0  0  0  0
    2.4837    0.2009   -0.2117 C   0  0  0  0  0  0  0  0  0  0  0  0
    2.4241    1.5834   -0.1810 C   0  0  0  0  0  0  0  0  0  0  0  0
    1.1988    2.2355   -0.1364 C   0  0  0  0  0  0  0  0  0  0  0  0
    1.2091    3.7418   -0.1231 C   0  0  0  0  0  0  0  0  0  0  0  0
   -0.1384    4.2870    0.3467 C   0  0  0  0  0  0  0  0  0  0  0  0
   -1.2437    3.6042   -0.4622 C   0  0  2  0  0  0  0  0  0  0  0  0
   -0.9668    3.6421   -1.5158 H   0  0  0  0  0  0  0  0  0  0  0  0
   -2.5610    4.3174   -0.2949 C   0  0  1  0  0  0  0  0  0  0  0  0
   -2.4072    5.3824   -0.4689 H   0  0  0  0  0  0  0  0  0  0  0  0
   -3.6276    3.8299   -1.2888 C   0  0  0  0  0  0  0  0  0  0  0  0
   -4.9789    4.0032   -0.5664 C   0  0  0  0  0  0  0  0  0  0  0  0
   -4.6595    4.5915    0.8252 C   0  0  1  0  0  0  0  0  0  0  0  0
   -4.7390    5.6785    0.8083 H   0  0  0  0  0  0  0  0  0  0  0  0
   -5.5294    4.0418    1.8168 O   0  0  0  0  0  0  0  0  0  0  0  0
    3.6867   -0.4298   -0.2552 O   0  0  0  0  0  0  0  0  0  0  0  0
   -1.8866    0.6039    1.8489 C   0  0  0  0  0  0  0  0  0  0  0  0
   -2.4805    0.5177    3.5491 Cl  0  0  0  0  0  0  0  0  0  0  0  0
   -1.5292    4.5883    2.3912 H   0  0  0  0  0  0  0  0  0  0  0  0
   -2.3832    6.0276    1.7852 H   0  0  0  0  0  0  0  0  0  0  0  0
   -3.1213    5.0245    3.0569 H   0  0  0  0  0  0  0  0  0  0  0  0
   -3.8888    2.1423    0.7835 H   0  0  0  0  0  0  0  0  0  0  0  0
   -3.6165    2.5749    2.4848 H   0  0  0  0  0  0  0  0  0  0  0  0
   -0.8199   -0.4633   -0.1382 H   0  0  0  0  0  0  0  0  0  0  0  0
    1.3469   -1.6171   -0.2237 H   0  0  0  0  0  0  0  0  0  0  0  0
    3.3375    2.1595   -0.1921 H   0  0  0  0  0  0  0  0  0  0  0  0
    1.9919    4.0895    0.5511 H   0  0  0  0  0  0  0  0  0  0  0  0
    1.4130    4.1083   -1.1291 H   0  0  0  0  0  0  0  0  0  0  0  0
   -0.2725    4.0710    1.4067 H   0  0  0  0  0  0  0  0  0  0  0  0
   -0.1758    5.3640    0.1834 H   0  0  0  0  0  0  0  0  0  0  0  0
   -3.4608    2.7793   -1.5264 H   0  0  0  0  0  0  0  0  0  0  0  0
   -3.6094    4.4280   -2.1999 H   0  0  0  0  0  0  0  0  0  0  0  0
   -5.4722    3.0371   -0.4595 H   0  0  0  0  0  0  0  0  0  0  0  0
   -5.6161    4.6889   -1.1249 H   0  0  0  0  0  0  0  0  0  0  0  0
   -6.4589    4.2821    1.7014 H   0  0  0  0  0  0  0  0  0  0  0  0
    4.0126   -0.5939   -1.1507 H   0  0  0  0  0  0  0  0  0  0  0  0
   -2.5639    0.0499    1.1989 H   0  0  0  0  0  0  0  0  0  0  0  0
   -0.8891    0.1685    1.7899 H   0  0  0  0  0  0  0  0  0  0  0  0
  1  2  1  0  0  0  0
  1 28  1  0  0  0  0
  1 29  1  0  0  0  0
  1 30  1  0  0  0  0
  2 18  1  0  0  0  0
  2 22  1  0  0  0  0
  2  3  1  0  0  0  0
  3  4  1  0  0  0  0
  3 31  1  0  0  0  0
  3 32  1  0  0  0  0
  4  5  1  0  0  0  0
  4  6  1  0  0  0  0
  4 26  1  0  0  0  0
  6  7  1  0  0  0  0
  6 16  1  0  0  0  0
  6  8  1  0  0  0  0
  8 13  2  0  0  0  0
  8  9  1  0  0  0  0
  9 10  2  0  0  0  0
  9 33  1  0  0  0  0
 10 11  1  0  0  0  0
 10 34  1  0  0  0  0
 11 12  2  0  0  0  0
 11 25  1  0  0  0  0
 12 13  1  0  0  0  0
 12 35  1  0  0  0  0
 13 14  1  0  0  0  0
 14 15  1  0  0  0  0
 14 36  1  0  0  0  0
 14 37  1  0  0  0  0
 15 16  1  0  0  0  0
 15 38  1  0  0  0  0
 15 39  1  0  0  0  0
 16 17  1  0  0  0  0
 16 18  1  0  0  0  0
 18 19  1  0  0  0  0
 18 20  1  0  0  0  0
 20 21  1  0  0  0  0
 20 40  1  0  0  0  0
 20 41  1  0  0  0  0
 21 22  1  0  0  0  0
 21 42  1  0  0  0  0
 21 43  1  0  0  0  0
 22 23  1  0  0  0  0
 22 24  1  0  0  0  0
 24 44  1  0  0  0  0
 25 45  1  0  0  0  0
 26 27  1  0  0  0  0
 26 46  1  0  0  0  0
 26 47  1  0  0  0  0
M  END
$$$$
