ZINC03815441
  -OEChem-08230709403D

 48 52  0     1  0  0  0  0  0999 V2000
    2.1660    1.7688    4.2298 C   0  0  0  0  0  0  0  0  0  0  0  0
    3.3630    1.7403    3.2772 C   0  0  1  0  0  0  0  0  0  0  0  0
    3.6177    0.3308    2.7449 C   0  0  0  0  0  0  0  0  0  0  0  0
    2.3374   -0.2195    2.1170 C   0  0  0  0  0  0  0  0  0  0  0  0
    1.4618    0.9033    1.5685 C   0  0  2  0  0  0  0  0  0  0  0  0
    0.8616    1.3115    2.3817 H   0  0  0  0  0  0  0  0  0  0  0  0
    0.5406    0.3622    0.5080 C   0  0  0  0  0  0  0  0  0  0  0  0
    0.3873   -0.9851    0.2757 C   0  0  0  0  0  0  0  0  0  0  0  0
   -0.4769   -1.4123   -0.7175 C   0  0  0  0  0  0  0  0  0  0  0  0
   -1.1824   -0.4869   -1.4733 C   0  0  0  0  0  0  0  0  0  0  0  0
   -1.0241    0.8734   -1.2347 C   0  0  0  0  0  0  0  0  0  0  0  0
   -0.1649    1.2896   -0.2465 C   0  0  0  0  0  0  0  0  0  0  0  0
    0.0620    2.7438    0.0741 C   0  0  0  0  0  0  0  0  0  0  0  0
    1.5570    3.0228    0.1561 C   0  0  0  0  0  0  0  0  0  0  0  0
    2.3238    2.0155    0.9864 C   0  0  1  0  0  0  0  0  0  0  0  0
    3.0225    1.5355    0.3011 H   0  0  0  0  0  0  0  0  0  0  0  0
    3.1386    2.6671    2.0536 C   0  0  1  0  0  0  0  0  0  0  0  0
    2.6760    4.0267    2.5952 C   0  0  0  0  0  0  0  0  0  0  0  0
    3.9532    4.5932    3.2739 C   0  0  0  0  0  0  0  0  0  0  0  0
    5.0500    3.5108    3.0221 C   0  0  2  0  0  0  0  0  0  0  0  0
    6.0819    3.8528    3.1006 H   0  0  0  0  0  0  0  0  0  0  0  0
    4.6041    2.9643    1.6147 C   0  0  0  0  0  0  0  0  0  0  0  0
    4.6445    2.3079    3.9319 C   0  0  2  0  0  0  0  0  0  0  0  0
    4.4341    2.6511    4.9448 H   0  0  0  0  0  0  0  0  0  0  0  0
    5.6777    1.3208    3.9432 O   0  0  0  0  0  0  0  0  0  0  0  0
   -2.0288   -0.9109   -2.4483 O   0  0  0  0  0  0  0  0  0  0  0  0
    2.4279    1.2603    5.1576 H   0  0  0  0  0  0  0  0  0  0  0  0
    1.8979    2.8031    4.4455 H   0  0  0  0  0  0  0  0  0  0  0  0
    1.3196    1.2634    3.7649 H   0  0  0  0  0  0  0  0  0  0  0  0
    3.9268   -0.3166    3.5655 H   0  0  0  0  0  0  0  0  0  0  0  0
    4.4057    0.3643    1.9925 H   0  0  0  0  0  0  0  0  0  0  0  0
    1.7782   -0.7716    2.8723 H   0  0  0  0  0  0  0  0  0  0  0  0
    2.6009   -0.8961    1.3040 H   0  0  0  0  0  0  0  0  0  0  0  0
    0.9374   -1.7044    0.8641 H   0  0  0  0  0  0  0  0  0  0  0  0
   -0.6022   -2.4685   -0.9049 H   0  0  0  0  0  0  0  0  0  0  0  0
   -1.5712    1.5966   -1.8212 H   0  0  0  0  0  0  0  0  0  0  0  0
   -0.3799    3.3610   -0.7080 H   0  0  0  0  0  0  0  0  0  0  0  0
   -0.4044    2.9815    1.0302 H   0  0  0  0  0  0  0  0  0  0  0  0
    1.9663    3.0242   -0.8542 H   0  0  0  0  0  0  0  0  0  0  0  0
    1.7028    4.0127    0.5883 H   0  0  0  0  0  0  0  0  0  0  0  0
    2.3532    4.6754    1.7809 H   0  0  0  0  0  0  0  0  0  0  0  0
    1.8751    3.8983    3.3234 H   0  0  0  0  0  0  0  0  0  0  0  0
    4.2401    5.5387    2.8137 H   0  0  0  0  0  0  0  0  0  0  0  0
    3.7882    4.7251    4.3433 H   0  0  0  0  0  0  0  0  0  0  0  0
    5.1428    2.0596    1.3329 H   0  0  0  0  0  0  0  0  0  0  0  0
    4.6565    3.7284    0.8390 H   0  0  0  0  0  0  0  0  0  0  0  0
    6.5052    1.6221    4.3427 H   0  0  0  0  0  0  0  0  0  0  0  0
   -1.6125   -1.0080   -3.3157 H   0  0  0  0  0  0  0  0  0  0  0  0
  1  2  1  0  0  0  0
  1 27  1  0  0  0  0
  1 28  1  0  0  0  0
  1 29  1  0  0  0  0
  2 17  1  0  0  0  0
  2 23  1  0  0  0  0
  2  3  1  0  0  0  0
  3  4  1  0  0  0  0
  3 30  1  0  0  0  0
  3 31  1  0  0  0  0
  4  5  1  0  0  0  0
  4 32  1  0  0  0  0
  4 33  1  0  0  0  0
  5  6  1  0  0  0  0
  5 15  1  0  0  0  0
  5  7  1  0  0  0  0
  7 12  2  0  0  0  0
  7  8  1  0  0  0  0
  8  9  2  0  0  0  0
  8 34  1  0  0  0  0
  9 10  1  0  0  0  0
  9 35  1  0  0  0  0
 10 11  2  0  0  0  0
 10 26  1  0  0  0  0
 11 12  1  0  0  0  0
 11 36  1  0  0  0  0
 12 13  1  0  0  0  0
 13 14  1  0  0  0  0
 13 37  1  0  0  0  0
 13 38  1  0  0  0  0
 14 15  1  0  0  0  0
 14 39  1  0  0  0  0
 14 40  1  0  0  0  0
 15 16  1  0  0  0  0
 15 17  1  0  0  0  0
 17 22  1  0  0  0  0
 17 18  1  0  0  0  0
 18 19  1  0  0  0  0
 18 41  1  0  0  0  0
 18 42  1  0  0  0  0
 19 20  1  0  0  0  0
 19 43  1  0  0  0  0
 19 44  1  0  0  0  0
 20 21  1  0  0  0  0
 20 22  1  0  0  0  0
 20 23  1  0  0  0  0
 22 45  1  0  0  0  0
 22 46  1  0  0  0  0
 23 24  1  0  0  0  0
 23 25  1  0  0  0  0
 25 47  1  0  0  0  0
 26 48  1  0  0  0  0
M  END
$$$$
