ZINC03814412
  -OEChem-08230709403D

 53 56  0     1  0  0  0  0  0999 V2000
   -3.1547    3.8587   -4.2664 C   0  0  0  0  0  0  0  0  0  0  0  0
   -3.8341    2.5062   -4.0425 C   0  0  2  0  0  0  0  0  0  0  0  0
   -3.8546    1.7224   -5.3563 C   0  0  0  0  0  0  0  0  0  0  0  0
   -4.6282    2.5165   -6.4110 C   0  0  0  0  0  0  0  0  0  0  0  0
   -6.0629    2.7411   -5.9291 C   0  0  1  0  0  0  0  0  0  0  0  0
   -6.5480    1.7779   -5.7708 H   0  0  0  0  0  0  0  0  0  0  0  0
   -6.0429    3.5241   -4.6149 C   0  0  0  0  0  0  0  0  0  0  0  0
   -5.2687    2.7308   -3.5599 C   0  0  2  0  0  0  0  0  0  0  0  0
   -5.7537    1.7677   -3.4012 H   0  0  0  0  0  0  0  0  0  0  0  0
   -5.2500    3.5149   -2.2463 C   0  0  0  0  0  0  0  0  0  0  0  0
   -4.4674    2.7296   -1.1918 C   0  0  0  0  0  0  0  0  0  0  0  0
   -3.0327    2.5174   -1.6772 C   0  0  2  0  0  0  0  0  0  0  0  0
   -2.5401    3.4756   -1.8423 H   0  0  0  0  0  0  0  0  0  0  0  0
   -3.0592    1.7151   -2.9877 C   0  0  2  0  0  0  0  0  0  0  0  0
   -3.5800    0.7733   -2.8147 H   0  0  0  0  0  0  0  0  0  0  0  0
   -1.6512    1.4162   -3.4909 C   0  0  0  0  0  0  0  0  0  0  0  0
   -0.8113    0.7256   -2.4262 C   0  0  0  0  0  0  0  0  0  0  0  0
   -0.7895    1.6104   -1.1950 C   0  0  1  0  0  0  0  0  0  0  0  0
   -2.2464    1.7049   -0.6660 C   0  0  1  0  0  0  0  0  0  0  0  0
   -2.6791    0.7102   -0.5597 H   0  0  0  0  0  0  0  0  0  0  0  0
   -2.0350    2.3454    0.7103 C   0  0  0  0  0  0  0  0  0  0  0  0
   -0.7782    1.6054    1.2504 C   0  0  0  0  0  0  0  0  0  0  0  0
   -0.0127    1.0858    0.0080 C   0  0  2  0  0  0  0  0  0  0  0  0
    0.0021   -0.0041    0.0020 H   0  0  0  0  0  0  0  0  0  0  0  0
    1.3211    1.5984   -0.0020 O   0  0  0  0  0  0  0  0  0  0  0  0
   -0.2836    3.0050   -1.5693 C   0  0  0  0  0  0  0  0  0  0  0  0
   -6.7856    3.4823   -6.9142 O   0  0  0  0  0  0  0  0  0  0  0  0
   -2.1325    3.6994   -4.6097 H   0  0  0  0  0  0  0  0  0  0  0  0
   -3.7068    4.4227   -5.0182 H   0  0  0  0  0  0  0  0  0  0  0  0
   -3.1407    4.4176   -3.3306 H   0  0  0  0  0  0  0  0  0  0  0  0
   -2.8326    1.5617   -5.6997 H   0  0  0  0  0  0  0  0  0  0  0  0
   -4.3403    0.7596   -5.1976 H   0  0  0  0  0  0  0  0  0  0  0  0
   -4.1429    3.4797   -6.5689 H   0  0  0  0  0  0  0  0  0  0  0  0
   -4.6425    1.9590   -7.3475 H   0  0  0  0  0  0  0  0  0  0  0  0
   -5.5580    4.4874   -4.7733 H   0  0  0  0  0  0  0  0  0  0  0  0
   -7.0650    3.6839   -4.2716 H   0  0  0  0  0  0  0  0  0  0  0  0
   -4.7729    4.4816   -2.4073 H   0  0  0  0  0  0  0  0  0  0  0  0
   -6.2722    3.6677   -1.9002 H   0  0  0  0  0  0  0  0  0  0  0  0
   -4.9436    1.7624   -1.0311 H   0  0  0  0  0  0  0  0  0  0  0  0
   -4.4556    3.2891   -0.2564 H   0  0  0  0  0  0  0  0  0  0  0  0
   -1.7155    0.7757   -4.3705 H   0  0  0  0  0  0  0  0  0  0  0  0
   -1.1650    2.3521   -3.7665 H   0  0  0  0  0  0  0  0  0  0  0  0
    0.2042    0.5745   -2.7923 H   0  0  0  0  0  0  0  0  0  0  0  0
   -1.2661   -0.2350   -2.1845 H   0  0  0  0  0  0  0  0  0  0  0  0
   -1.8406    3.4135    0.6129 H   0  0  0  0  0  0  0  0  0  0  0  0
   -2.8965    2.1688    1.3543 H   0  0  0  0  0  0  0  0  0  0  0  0
   -1.0782    0.7691    1.8818 H   0  0  0  0  0  0  0  0  0  0  0  0
   -0.1506    2.2948    1.8152 H   0  0  0  0  0  0  0  0  0  0  0  0
    1.8573    1.3145    0.7510 H   0  0  0  0  0  0  0  0  0  0  0  0
    0.7697    2.9478   -1.8441 H   0  0  0  0  0  0  0  0  0  0  0  0
   -0.8590    3.3859   -2.4130 H   0  0  0  0  0  0  0  0  0  0  0  0
   -0.4009    3.6748   -0.7174 H   0  0  0  0  0  0  0  0  0  0  0  0
   -6.8389    3.0447   -7.7749 H   0  0  0  0  0  0  0  0  0  0  0  0
  1  2  1  0  0  0  0
  1 28  1  0  0  0  0
  1 29  1  0  0  0  0
  1 30  1  0  0  0  0
  2  8  1  0  0  0  0
  2 14  1  0  0  0  0
  2  3  1  0  0  0  0
  3  4  1  0  0  0  0
  3 31  1  0  0  0  0
  3 32  1  0  0  0  0
  4  5  1  0  0  0  0
  4 33  1  0  0  0  0
  4 34  1  0  0  0  0
  5  6  1  0  0  0  0
  5  7  1  0  0  0  0
  5 27  1  0  0  0  0
  7  8  1  0  0  0  0
  7 35  1  0  0  0  0
  7 36  1  0  0  0  0
  8  9  1  0  0  0  0
  8 10  1  0  0  0  0
 10 11  1  0  0  0  0
 10 37  1  0  0  0  0
 10 38  1  0  0  0  0
 11 12  1  0  0  0  0
 11 39  1  0  0  0  0
 11 40  1  0  0  0  0
 12 13  1  0  0  0  0
 12 19  1  0  0  0  0
 12 14  1  0  0  0  0
 14 15  1  0  0  0  0
 14 16  1  0  0  0  0
 16 17  1  0  0  0  0
 16 41  1  0  0  0  0
 16 42  1  0  0  0  0
 17 18  1  0  0  0  0
 17 43  1  0  0  0  0
 17 44  1  0  0  0  0
 18 23  1  0  0  0  0
 18 19  1  0  0  0  0
 18 26  1  0  0  0  0
 19 20  1  0  0  0  0
 19 21  1  0  0  0  0
 21 22  1  0  0  0  0
 21 45  1  0  0  0  0
 21 46  1  0  0  0  0
 22 23  1  0  0  0  0
 22 47  1  0  0  0  0
 22 48  1  0  0  0  0
 23 24  1  0  0  0  0
 23 25  1  0  0  0  0
 25 49  1  0  0  0  0
 26 50  1  0  0  0  0
 26 51  1  0  0  0  0
 26 52  1  0  0  0  0
 27 53  1  0  0  0  0
M  END
$$$$
