ZINC03814680
  -OEChem-08230709403D

 45 47  0     0  0  0  0  0  0999 V2000
    3.5804    5.2233    5.0198 C   0  0  0  0  0  0  0  0  0  0  0  0
    3.1698    4.1559    5.9418 N   0  0  0  0  0  0  0  0  0  0  0  0
    3.6899    4.3993    7.2939 C   0  0  0  0  0  0  0  0  0  0  0  0
    1.7805    4.0155    5.9578 C   0  0  0  0  0  0  0  0  0  0  0  0
    0.9792    5.0852    6.3398 C   0  0  0  0  0  0  0  0  0  0  0  0
   -0.3925    4.9493    6.3561 C   0  0  0  0  0  0  0  0  0  0  0  0
   -0.9769    3.7372    5.9893 C   0  0  0  0  0  0  0  0  0  0  0  0
   -0.1714    2.6630    5.6119 C   0  0  0  0  0  0  0  0  0  0  0  0
    1.2005    2.8055    5.5911 C   0  0  0  0  0  0  0  0  0  0  0  0
    2.2041    1.4715    5.1146 Cl  0  0  0  0  0  0  0  0  0  0  0  0
   -2.4513    3.5889    6.0066 C   0  0  0  0  0  0  0  0  0  0  0  0
   -3.1797    3.9718    7.1300 C   0  0  0  0  0  0  0  0  0  0  0  0
   -4.5538    3.8274    7.1446 C   0  0  0  0  0  0  0  0  0  0  0  0
   -5.2155    3.3059    6.0402 C   0  0  0  0  0  0  0  0  0  0  0  0
   -4.5058    2.9264    4.9171 C   0  0  0  0  0  0  0  0  0  0  0  0
   -3.1207    3.0664    4.8886 C   0  0  0  0  0  0  0  0  0  0  0  0
   -2.3559    2.6599    3.6857 C   0  0  0  0  0  0  0  0  0  0  0  0
   -2.5610    1.4033    3.1177 C   0  0  0  0  0  0  0  0  0  0  0  0
   -1.8458    1.0302    1.9981 C   0  0  0  0  0  0  0  0  0  0  0  0
   -0.9267    1.9002    1.4394 C   0  0  0  0  0  0  0  0  0  0  0  0
   -0.7149    3.1461    2.0020 C   0  0  0  0  0  0  0  0  0  0  0  0
   -1.4284    3.5324    3.1183 C   0  0  0  0  0  0  0  0  0  0  0  0
   -0.0172    1.4168    0.0098 S   0  0  0  0  0  0  0  0  0  0  0  0
    0.0021   -0.0041    0.0020 O   0  0  0  0  0  0  0  0  0  0  0  0
    1.1718    2.1948    0.0027 O   0  0  0  0  0  0  0  0  0  0  0  0
   -0.8975    1.8855   -1.3122 N   0  0  0  0  0  0  0  0  0  0  0  0
   -6.5593    3.1687    6.0646 F   0  0  0  0  0  0  0  0  0  0  0  0
   -5.2570    4.1954    8.2378 F   0  0  0  0  0  0  0  0  0  0  0  0
    3.1373    6.1674    5.3365 H   0  0  0  0  0  0  0  0  0  0  0  0
    4.6668    5.3114    5.0267 H   0  0  0  0  0  0  0  0  0  0  0  0
    3.2417    4.9830    4.0120 H   0  0  0  0  0  0  0  0  0  0  0  0
    3.4309    3.5600    7.9393 H   0  0  0  0  0  0  0  0  0  0  0  0
    4.7740    4.5048    7.2526 H   0  0  0  0  0  0  0  0  0  0  0  0
    3.2508    5.3136    7.6930 H   0  0  0  0  0  0  0  0  0  0  0  0
    1.4318    6.0238    6.6238 H   0  0  0  0  0  0  0  0  0  0  0  0
   -1.0142    5.7810    6.6530 H   0  0  0  0  0  0  0  0  0  0  0  0
   -0.6215    1.7221    5.3318 H   0  0  0  0  0  0  0  0  0  0  0  0
   -2.6702    4.3779    7.9914 H   0  0  0  0  0  0  0  0  0  0  0  0
   -5.0253    2.5215    4.0613 H   0  0  0  0  0  0  0  0  0  0  0  0
   -3.2780    0.7231    3.5532 H   0  0  0  0  0  0  0  0  0  0  0  0
   -2.0040    0.0572    1.5569 H   0  0  0  0  0  0  0  0  0  0  0  0
    0.0073    3.8193    1.5644 H   0  0  0  0  0  0  0  0  0  0  0  0
   -1.2651    4.5069    3.5543 H   0  0  0  0  0  0  0  0  0  0  0  0
   -1.7474    2.3376   -1.1935 H   0  0  0  0  0  0  0  0  0  0  0  0
   -0.5632    1.7079   -2.2053 H   0  0  0  0  0  0  0  0  0  0  0  0
  1  2  1  0  0  0  0
  1 29  1  0  0  0  0
  1 30  1  0  0  0  0
  1 31  1  0  0  0  0
  2  3  1  0  0  0  0
  2  4  1  0  0  0  0
  3 32  1  0  0  0  0
  3 33  1  0  0  0  0
  3 34  1  0  0  0  0
  4  9  2  0  0  0  0
  4  5  1  0  0  0  0
  5  6  2  0  0  0  0
  5 35  1  0  0  0  0
  6  7  1  0  0  0  0
  6 36  1  0  0  0  0
  7  8  2  0  0  0  0
  7 11  1  0  0  0  0
  8  9  1  0  0  0  0
  8 37  1  0  0  0  0
  9 10  1  0  0  0  0
 11 16  2  0  0  0  0
 11 12  1  0  0  0  0
 12 13  2  0  0  0  0
 12 38  1  0  0  0  0
 13 14  1  0  0  0  0
 13 28  1  0  0  0  0
 14 15  2  0  0  0  0
 14 27  1  0  0  0  0
 15 16  1  0  0  0  0
 15 39  1  0  0  0  0
 16 17  1  0  0  0  0
 17 22  2  0  0  0  0
 17 18  1  0  0  0  0
 18 19  2  0  0  0  0
 18 40  1  0  0  0  0
 19 20  1  0  0  0  0
 19 41  1  0  0  0  0
 20 21  2  0  0  0  0
 20 23  1  0  0  0  0
 21 22  1  0  0  0  0
 21 42  1  0  0  0  0
 22 43  1  0  0  0  0
 23 24  2  0  0  0  0
 23 25  2  0  0  0  0
 23 26  1  0  0  0  0
 26 44  1  0  0  0  0
 26 45  1  0  0  0  0
M  END
$$$$
