ZINC03814597
  -OEChem-08230709403D

 42 44  0     0  0  0  0  0  0999 V2000
    4.0747    4.5285    8.7080 C   0  0  0  0  0  0  0  0  0  0  0  0
    3.9163    3.7137    7.0951 S   0  0  0  0  0  0  0  0  0  0  0  0
    2.1761    3.5755    6.8564 C   0  0  0  0  0  0  0  0  0  0  0  0
    1.3019    4.0555    7.8264 C   0  0  0  0  0  0  0  0  0  0  0  0
   -0.0591    3.9484    7.6428 C   0  0  0  0  0  0  0  0  0  0  0  0
   -0.5619    3.3573    6.4816 C   0  0  0  0  0  0  0  0  0  0  0  0
    0.3173    2.8709    5.5116 C   0  0  0  0  0  0  0  0  0  0  0  0
    1.6783    2.9857    5.6976 C   0  0  0  0  0  0  0  0  0  0  0  0
    2.7724    2.3875    4.4899 Cl  0  0  0  0  0  0  0  0  0  0  0  0
   -2.0214    3.2414    6.2824 C   0  0  0  0  0  0  0  0  0  0  0  0
   -2.9346    3.2929    7.2276 N   0  0  0  0  0  0  0  0  0  0  0  0
   -4.1477    3.1521    6.6792 C   0  0  0  0  0  0  0  0  0  0  0  0
   -4.0002    3.0126    5.3466 C   0  0  0  0  0  0  0  0  0  0  0  0
   -2.6544    3.0622    5.0841 N   0  0  0  0  0  0  0  0  0  0  0  0
   -2.0453    2.9556    3.8265 C   0  0  0  0  0  0  0  0  0  0  0  0
   -2.2766    1.8393    3.0339 C   0  0  0  0  0  0  0  0  0  0  0  0
   -1.6752    1.7373    1.7948 C   0  0  0  0  0  0  0  0  0  0  0  0
   -0.8437    2.7457    1.3431 C   0  0  0  0  0  0  0  0  0  0  0  0
   -0.6072    3.8562    2.1324 C   0  0  0  0  0  0  0  0  0  0  0  0
   -1.2095    3.9662    3.3705 C   0  0  0  0  0  0  0  0  0  0  0  0
   -0.0783    2.6119   -0.2383 S   0  0  0  0  0  0  0  0  0  0  0  0
    0.0039    1.2148   -0.4843 O   0  0  0  0  0  0  0  0  0  0  0  0
    1.0996    3.4005   -0.1389 O   0  0  0  0  0  0  0  0  0  0  0  0
   -1.2499    3.3812   -1.3898 C   0  0  0  0  0  0  0  0  0  0  0  0
   -5.4572    3.1560    7.4250 C   0  0  0  0  0  0  0  0  0  0  0  0
   -5.2247    3.4434    8.7742 F   0  0  0  0  0  0  0  0  0  0  0  0
   -6.3015    4.1293    6.8797 F   0  0  0  0  0  0  0  0  0  0  0  0
   -6.0613    1.8991    7.3132 F   0  0  0  0  0  0  0  0  0  0  0  0
    3.5864    5.5023    8.6727 H   0  0  0  0  0  0  0  0  0  0  0  0
    3.6028    3.9130    9.4739 H   0  0  0  0  0  0  0  0  0  0  0  0
    5.1301    4.6597    8.9467 H   0  0  0  0  0  0  0  0  0  0  0  0
    1.6908    4.5128    8.7241 H   0  0  0  0  0  0  0  0  0  0  0  0
   -0.7369    4.3210    8.3966 H   0  0  0  0  0  0  0  0  0  0  0  0
   -0.0687    2.4090    4.6149 H   0  0  0  0  0  0  0  0  0  0  0  0
   -4.7914    2.8835    4.6230 H   0  0  0  0  0  0  0  0  0  0  0  0
   -2.9265    1.0518    3.3858 H   0  0  0  0  0  0  0  0  0  0  0  0
   -1.8548    0.8693    1.1778 H   0  0  0  0  0  0  0  0  0  0  0  0
    0.0460    4.6402    1.7787 H   0  0  0  0  0  0  0  0  0  0  0  0
   -1.0276    4.8356    3.9848 H   0  0  0  0  0  0  0  0  0  0  0  0
   -2.1987    2.8459   -1.3545 H   0  0  0  0  0  0  0  0  0  0  0  0
   -1.4088    4.4214   -1.1055 H   0  0  0  0  0  0  0  0  0  0  0  0
   -0.8461    3.3387   -2.4014 H   0  0  0  0  0  0  0  0  0  0  0  0
  1  2  1  0  0  0  0
  1 29  1  0  0  0  0
  1 30  1  0  0  0  0
  1 31  1  0  0  0  0
  2  3  1  0  0  0  0
  3  8  2  0  0  0  0
  3  4  1  0  0  0  0
  4  5  2  0  0  0  0
  4 32  1  0  0  0  0
  5  6  1  0  0  0  0
  5 33  1  0  0  0  0
  6  7  2  0  0  0  0
  6 10  1  0  0  0  0
  7  8  1  0  0  0  0
  7 34  1  0  0  0  0
  8  9  1  0  0  0  0
 10 14  1  0  0  0  0
 10 11  2  0  0  0  0
 11 12  1  0  0  0  0
 12 13  2  0  0  0  0
 12 25  1  0  0  0  0
 13 14  1  0  0  0  0
 13 35  1  0  0  0  0
 14 15  1  0  0  0  0
 15 20  2  0  0  0  0
 15 16  1  0  0  0  0
 16 17  2  0  0  0  0
 16 36  1  0  0  0  0
 17 18  1  0  0  0  0
 17 37  1  0  0  0  0
 18 19  2  0  0  0  0
 18 21  1  0  0  0  0
 19 20  1  0  0  0  0
 19 38  1  0  0  0  0
 20 39  1  0  0  0  0
 21 22  2  0  0  0  0
 21 23  2  0  0  0  0
 21 24  1  0  0  0  0
 24 40  1  0  0  0  0
 24 41  1  0  0  0  0
 24 42  1  0  0  0  0
 25 26  1  0  0  0  0
 25 27  1  0  0  0  0
 25 28  1  0  0  0  0
M  END
$$$$
