ZINC03814775
  -OEChem-08230709403D

 66 70  0     0  0  0  0  0  0999 V2000
    8.7406    0.7600    2.7421 C   0  0  0  0  0  0  0  0  0  0  0  0
    9.1542   -0.1859    1.7539 O   0  0  0  0  0  0  0  0  0  0  0  0
    8.6046    0.0513    0.4563 C   0  0  0  0  0  0  0  0  0  0  0  0
    8.8358    1.5125    0.0592 C   0  0  0  0  0  0  0  0  0  0  0  0
   10.3410    1.7761   -0.0333 C   0  0  0  0  0  0  0  0  0  0  0  0
   10.9238    0.8757   -0.9777 O   0  0  0  0  0  0  0  0  0  0  0  0
   10.7801   -0.5039   -0.6340 C   0  0  0  0  0  0  0  0  0  0  0  0
    9.2925   -0.8590   -0.5657 C   0  0  0  0  0  0  0  0  0  0  0  0
    7.1258   -0.2382    0.4746 C   0  0  0  0  0  0  0  0  0  0  0  0
    6.5413   -0.7751    1.6066 C   0  0  0  0  0  0  0  0  0  0  0  0
    5.1851   -1.0362    1.6280 C   0  0  0  0  0  0  0  0  0  0  0  0
    4.4096   -0.7702    0.5084 C   0  0  0  0  0  0  0  0  0  0  0  0
    4.9962   -0.2322   -0.6271 C   0  0  0  0  0  0  0  0  0  0  0  0
    6.3542    0.0334   -0.6428 C   0  0  0  0  0  0  0  0  0  0  0  0
    6.9272    0.5580   -1.7480 F   0  0  0  0  0  0  0  0  0  0  0  0
    3.0761   -1.0315    0.5266 O   0  0  0  0  0  0  0  0  0  0  0  0
    2.5400   -1.5854    1.7299 C   0  0  0  0  0  0  0  0  0  0  0  0
    1.0584   -1.8061    1.5647 C   0  0  0  0  0  0  0  0  0  0  0  0
    0.5079   -2.8959    1.1142 N   0  0  0  0  0  0  0  0  0  0  0  0
   -0.8323   -2.7369    1.1037 C   0  0  0  0  0  0  0  0  0  0  0  0
   -1.0920   -1.4682    1.5799 C   0  0  0  0  0  0  0  0  0  0  0  0
    0.1066   -0.9106    1.8596 O   0  0  0  0  0  0  0  0  0  0  0  0
   -2.4177   -0.8413    1.7452 C   0  0  0  0  0  0  0  0  0  0  0  0
   -3.5620   -1.6360    1.8468 C   0  0  0  0  0  0  0  0  0  0  0  0
   -4.7972   -1.0433    2.0069 C   0  0  0  0  0  0  0  0  0  0  0  0
   -4.9056    0.3354    2.0554 C   0  0  0  0  0  0  0  0  0  0  0  0
   -3.7770    1.1290    1.9496 C   0  0  0  0  0  0  0  0  0  0  0  0
   -2.5347    0.5499    1.7949 C   0  0  0  0  0  0  0  0  0  0  0  0
   -6.4885    1.0840    2.2522 S   0  0  0  0  0  0  0  0  0  0  0  0
   -7.2718    0.1052    2.9213 O   0  0  0  0  0  0  0  0  0  0  0  0
   -6.2225    2.3396    2.8619 O   0  0  0  0  0  0  0  0  0  0  0  0
   -7.1024    1.3273    0.5626 C   0  0  0  0  0  0  0  0  0  0  0  0
   -1.8347   -3.7356    0.6647 C   0  0  0  0  0  0  0  0  0  0  0  0
   -1.7318   -5.0615    1.0849 C   0  0  0  0  0  0  0  0  0  0  0  0
   -2.6707   -5.9866    0.6777 C   0  0  0  0  0  0  0  0  0  0  0  0
   -3.7087   -5.6026   -0.1561 C   0  0  0  0  0  0  0  0  0  0  0  0
   -3.8120   -4.2877   -0.5809 C   0  0  0  0  0  0  0  0  0  0  0  0
   -2.8811   -3.3541   -0.1748 C   0  0  0  0  0  0  0  0  0  0  0  0
   -4.6228   -6.5133   -0.5564 F   0  0  0  0  0  0  0  0  0  0  0  0
    9.1789    1.7329    2.5197 H   0  0  0  0  0  0  0  0  0  0  0  0
    7.6536    0.8410    2.7350 H   0  0  0  0  0  0  0  0  0  0  0  0
    9.0738    0.4275    3.7252 H   0  0  0  0  0  0  0  0  0  0  0  0
    8.3722    1.7047   -0.9084 H   0  0  0  0  0  0  0  0  0  0  0  0
    8.3967    2.1682    0.8111 H   0  0  0  0  0  0  0  0  0  0  0  0
   10.7976    1.6229    0.9445 H   0  0  0  0  0  0  0  0  0  0  0  0
   10.5112    2.8029   -0.3571 H   0  0  0  0  0  0  0  0  0  0  0  0
   11.2424   -0.6869    0.3360 H   0  0  0  0  0  0  0  0  0  0  0  0
   11.2664   -1.1196   -1.3907 H   0  0  0  0  0  0  0  0  0  0  0  0
    9.1800   -1.8994   -0.2606 H   0  0  0  0  0  0  0  0  0  0  0  0
    8.8381   -0.7147   -1.5459 H   0  0  0  0  0  0  0  0  0  0  0  0
    7.1451   -0.9862    2.4769 H   0  0  0  0  0  0  0  0  0  0  0  0
    4.7290   -1.4515    2.5146 H   0  0  0  0  0  0  0  0  0  0  0  0
    4.3939   -0.0209   -1.4983 H   0  0  0  0  0  0  0  0  0  0  0  0
    2.7148   -0.8966    2.5564 H   0  0  0  0  0  0  0  0  0  0  0  0
    3.0278   -2.5371    1.9407 H   0  0  0  0  0  0  0  0  0  0  0  0
   -3.4793   -2.7120    1.8047 H   0  0  0  0  0  0  0  0  0  0  0  0
   -5.6823   -1.6566    2.0897 H   0  0  0  0  0  0  0  0  0  0  0  0
   -3.8690    2.2044    1.9879 H   0  0  0  0  0  0  0  0  0  0  0  0
   -1.6547    1.1705    1.7122 H   0  0  0  0  0  0  0  0  0  0  0  0
   -7.1721    0.3632    0.0590 H   0  0  0  0  0  0  0  0  0  0  0  0
   -8.0881    1.7912    0.5975 H   0  0  0  0  0  0  0  0  0  0  0  0
   -6.4157    1.9739    0.0162 H   0  0  0  0  0  0  0  0  0  0  0  0
   -0.9206   -5.3627    1.7311 H   0  0  0  0  0  0  0  0  0  0  0  0
   -2.5942   -7.0126    1.0058 H   0  0  0  0  0  0  0  0  0  0  0  0
   -4.6224   -3.9934   -1.2312 H   0  0  0  0  0  0  0  0  0  0  0  0
   -2.9622   -2.3296   -0.5067 H   0  0  0  0  0  0  0  0  0  0  0  0
  1  2  1  0  0  0  0
  1 40  1  0  0  0  0
  1 41  1  0  0  0  0
  1 42  1  0  0  0  0
  2  3  1  0  0  0  0
  3  8  1  0  0  0  0
  3  4  1  0  0  0  0
  3  9  1  0  0  0  0
  4  5  1  0  0  0  0
  4 43  1  0  0  0  0
  4 44  1  0  0  0  0
  5  6  1  0  0  0  0
  5 45  1  0  0  0  0
  5 46  1  0  0  0  0
  6  7  1  0  0  0  0
  7  8  1  0  0  0  0
  7 47  1  0  0  0  0
  7 48  1  0  0  0  0
  8 49  1  0  0  0  0
  8 50  1  0  0  0  0
  9 14  2  0  0  0  0
  9 10  1  0  0  0  0
 10 11  2  0  0  0  0
 10 51  1  0  0  0  0
 11 12  1  0  0  0  0
 11 52  1  0  0  0  0
 12 13  2  0  0  0  0
 12 16  1  0  0  0  0
 13 14  1  0  0  0  0
 13 53  1  0  0  0  0
 14 15  1  0  0  0  0
 16 17  1  0  0  0  0
 17 18  1  0  0  0  0
 17 54  1  0  0  0  0
 17 55  1  0  0  0  0
 18 22  1  0  0  0  0
 18 19  2  0  0  0  0
 19 20  1  0  0  0  0
 20 21  2  0  0  0  0
 20 33  1  0  0  0  0
 21 22  1  0  0  0  0
 21 23  1  0  0  0  0
 23 28  2  0  0  0  0
 23 24  1  0  0  0  0
 24 25  2  0  0  0  0
 24 56  1  0  0  0  0
 25 26  1  0  0  0  0
 25 57  1  0  0  0  0
 26 27  2  0  0  0  0
 26 29  1  0  0  0  0
 27 28  1  0  0  0  0
 27 58  1  0  0  0  0
 28 59  1  0  0  0  0
 29 30  2  0  0  0  0
 29 31  2  0  0  0  0
 29 32  1  0  0  0  0
 32 60  1  0  0  0  0
 32 61  1  0  0  0  0
 32 62  1  0  0  0  0
 33 38  2  0  0  0  0
 33 34  1  0  0  0  0
 34 35  2  0  0  0  0
 34 63  1  0  0  0  0
 35 36  1  0  0  0  0
 35 64  1  0  0  0  0
 36 37  2  0  0  0  0
 36 39  1  0  0  0  0
 37 38  1  0  0  0  0
 37 65  1  0  0  0  0
 38 66  1  0  0  0  0
M  END
$$$$
