ZINC03814598
  -OEChem-08230709403D

 46 48  0     0  0  0  0  0  0999 V2000
    3.9536    5.0984    7.1843 C   0  0  0  0  0  0  0  0  0  0  0  0
    3.5538    3.6920    7.0425 N   0  0  0  0  0  0  0  0  0  0  0  0
    3.9929    2.9007    8.1996 C   0  0  0  0  0  0  0  0  0  0  0  0
    2.1756    3.5804    6.8544 C   0  0  0  0  0  0  0  0  0  0  0  0
    1.3019    4.0587    7.8245 C   0  0  0  0  0  0  0  0  0  0  0  0
   -0.0595    3.9505    7.6416 C   0  0  0  0  0  0  0  0  0  0  0  0
   -0.5622    3.3593    6.4807 C   0  0  0  0  0  0  0  0  0  0  0  0
    0.3171    2.8740    5.5106 C   0  0  0  0  0  0  0  0  0  0  0  0
    1.6784    2.9902    5.6965 C   0  0  0  0  0  0  0  0  0  0  0  0
    2.7728    2.3939    4.4881 Cl  0  0  0  0  0  0  0  0  0  0  0  0
   -2.0218    3.2420    6.2819 C   0  0  0  0  0  0  0  0  0  0  0  0
   -2.9346    3.2925    7.2274 N   0  0  0  0  0  0  0  0  0  0  0  0
   -4.1478    3.1511    6.6794 C   0  0  0  0  0  0  0  0  0  0  0  0
   -4.0006    3.0126    5.3467 C   0  0  0  0  0  0  0  0  0  0  0  0
   -2.6550    3.0628    5.0838 N   0  0  0  0  0  0  0  0  0  0  0  0
   -2.0461    2.9566    3.8261 C   0  0  0  0  0  0  0  0  0  0  0  0
   -2.2772    1.8404    3.0334 C   0  0  0  0  0  0  0  0  0  0  0  0
   -1.6760    1.7388    1.7941 C   0  0  0  0  0  0  0  0  0  0  0  0
   -0.8447    2.7474    1.3426 C   0  0  0  0  0  0  0  0  0  0  0  0
   -0.6081    3.8577    2.1322 C   0  0  0  0  0  0  0  0  0  0  0  0
   -1.2109    3.9676    3.3700 C   0  0  0  0  0  0  0  0  0  0  0  0
   -0.0796    2.6141   -0.2390 S   0  0  0  0  0  0  0  0  0  0  0  0
    0.0027    1.2171   -0.4854 O   0  0  0  0  0  0  0  0  0  0  0  0
    1.0983    3.4028   -0.1396 O   0  0  0  0  0  0  0  0  0  0  0  0
   -1.2515    3.3836   -1.3901 C   0  0  0  0  0  0  0  0  0  0  0  0
   -5.4571    3.1532    7.4257 C   0  0  0  0  0  0  0  0  0  0  0  0
   -5.2243    3.4395    8.7751 F   0  0  0  0  0  0  0  0  0  0  0  0
   -6.3024    4.1261    6.8816 F   0  0  0  0  0  0  0  0  0  0  0  0
   -6.0600    1.8958    7.3130 F   0  0  0  0  0  0  0  0  0  0  0  0
    3.4469    5.5352    8.0449 H   0  0  0  0  0  0  0  0  0  0  0  0
    5.0323    5.1566    7.3297 H   0  0  0  0  0  0  0  0  0  0  0  0
    3.6783    5.6470    6.2835 H   0  0  0  0  0  0  0  0  0  0  0  0
    3.7462    1.8515    8.0370 H   0  0  0  0  0  0  0  0  0  0  0  0
    5.0708    3.0055    8.3235 H   0  0  0  0  0  0  0  0  0  0  0  0
    3.4876    3.2579    9.0970 H   0  0  0  0  0  0  0  0  0  0  0  0
    1.6908    4.5160    8.7223 H   0  0  0  0  0  0  0  0  0  0  0  0
   -0.7373    4.3224    8.3958 H   0  0  0  0  0  0  0  0  0  0  0  0
   -0.0686    2.4122    4.6137 H   0  0  0  0  0  0  0  0  0  0  0  0
   -4.7920    2.8838    4.6231 H   0  0  0  0  0  0  0  0  0  0  0  0
   -2.9266    1.0525    3.3854 H   0  0  0  0  0  0  0  0  0  0  0  0
   -1.8556    0.8709    1.1769 H   0  0  0  0  0  0  0  0  0  0  0  0
    0.0454    4.6415    1.7788 H   0  0  0  0  0  0  0  0  0  0  0  0
   -1.0290    4.8369    3.9846 H   0  0  0  0  0  0  0  0  0  0  0  0
   -2.2002    2.8482   -1.3548 H   0  0  0  0  0  0  0  0  0  0  0  0
   -1.4105    4.4237   -1.1055 H   0  0  0  0  0  0  0  0  0  0  0  0
   -0.8479    3.3414   -2.4018 H   0  0  0  0  0  0  0  0  0  0  0  0
  1  2  1  0  0  0  0
  1 30  1  0  0  0  0
  1 31  1  0  0  0  0
  1 32  1  0  0  0  0
  2  3  1  0  0  0  0
  2  4  1  0  0  0  0
  3 33  1  0  0  0  0
  3 34  1  0  0  0  0
  3 35  1  0  0  0  0
  4  9  2  0  0  0  0
  4  5  1  0  0  0  0
  5  6  2  0  0  0  0
  5 36  1  0  0  0  0
  6  7  1  0  0  0  0
  6 37  1  0  0  0  0
  7  8  2  0  0  0  0
  7 11  1  0  0  0  0
  8  9  1  0  0  0  0
  8 38  1  0  0  0  0
  9 10  1  0  0  0  0
 11 15  1  0  0  0  0
 11 12  2  0  0  0  0
 12 13  1  0  0  0  0
 13 14  2  0  0  0  0
 13 26  1  0  0  0  0
 14 15  1  0  0  0  0
 14 39  1  0  0  0  0
 15 16  1  0  0  0  0
 16 21  2  0  0  0  0
 16 17  1  0  0  0  0
 17 18  2  0  0  0  0
 17 40  1  0  0  0  0
 18 19  1  0  0  0  0
 18 41  1  0  0  0  0
 19 20  2  0  0  0  0
 19 22  1  0  0  0  0
 20 21  1  0  0  0  0
 20 42  1  0  0  0  0
 21 43  1  0  0  0  0
 22 23  2  0  0  0  0
 22 24  2  0  0  0  0
 22 25  1  0  0  0  0
 25 44  1  0  0  0  0
 25 45  1  0  0  0  0
 25 46  1  0  0  0  0
 26 27  1  0  0  0  0
 26 28  1  0  0  0  0
 26 29  1  0  0  0  0
M  END
$$$$
