ZINC03814676
  -OEChem-08230709403D

 43 46  0     0  0  0  0  0  0999 V2000
   -3.2886    0.6148    2.7167 C   0  0  0  0  0  0  0  0  0  0  0  0
   -3.0880    1.6213    3.6393 C   0  0  0  0  0  0  0  0  0  0  0  0
   -4.0490    2.6000    3.8191 C   0  0  0  0  0  0  0  0  0  0  0  0
   -5.2127    2.5800    3.0715 C   0  0  0  0  0  0  0  0  0  0  0  0
   -5.4218    1.5818    2.1419 C   0  0  0  0  0  0  0  0  0  0  0  0
   -4.4571    0.5925    1.9566 C   0  0  0  0  0  0  0  0  0  0  0  0
   -4.6757   -0.4824    0.9596 C   0  0  0  0  0  0  0  0  0  0  0  0
   -5.8722   -1.1945    0.9498 C   0  0  0  0  0  0  0  0  0  0  0  0
   -6.0703   -2.1996    0.0227 C   0  0  0  0  0  0  0  0  0  0  0  0
   -5.0824   -2.5014   -0.9059 C   0  0  0  0  0  0  0  0  0  0  0  0
   -3.8922   -1.7995   -0.9107 C   0  0  0  0  0  0  0  0  0  0  0  0
   -3.6791   -0.7841    0.0179 C   0  0  0  0  0  0  0  0  0  0  0  0
   -2.4036   -0.0293    0.0162 C   0  0  0  0  0  0  0  0  0  0  0  0
   -2.4164    1.3649    0.0261 C   0  0  0  0  0  0  0  0  0  0  0  0
   -1.2283    2.0652    0.0191 C   0  0  0  0  0  0  0  0  0  0  0  0
   -0.0168    1.3869    0.0097 C   0  0  0  0  0  0  0  0  0  0  0  0
    0.0021   -0.0041    0.0020 C   0  0  0  0  0  0  0  0  0  0  0  0
   -1.1882   -0.7115    0.0043 C   0  0  0  0  0  0  0  0  0  0  0  0
    1.1811   -0.6847   -0.0068 O   0  0  0  0  0  0  0  0  0  0  0  0
    2.3473    0.0535   -0.3871 C   0  0  0  0  0  0  0  0  0  0  0  0
    2.3347    1.3914    0.3649 C   0  0  0  0  0  0  0  0  0  0  0  0
    1.1438    2.0983    0.0024 O   0  0  0  0  0  0  0  0  0  0  0  0
   -5.2860   -3.4860   -1.8083 F   0  0  0  0  0  0  0  0  0  0  0  0
   -7.2302   -2.8924    0.0196 F   0  0  0  0  0  0  0  0  0  0  0  0
   -3.7894    3.8774    5.0046 S   0  0  0  0  0  0  0  0  0  0  0  0
   -2.3840    3.9831    5.1867 O   0  0  0  0  0  0  0  0  0  0  0  0
   -4.5896    4.9786    4.5969 O   0  0  0  0  0  0  0  0  0  0  0  0
   -4.4143    3.3451    6.4428 N   0  0  0  0  0  0  0  0  0  0  0  0
   -2.5398   -0.1515    2.5805 H   0  0  0  0  0  0  0  0  0  0  0  0
   -2.1812    1.6422    4.2255 H   0  0  0  0  0  0  0  0  0  0  0  0
   -5.9593    3.3469    3.2159 H   0  0  0  0  0  0  0  0  0  0  0  0
   -6.3311    1.5668    1.5593 H   0  0  0  0  0  0  0  0  0  0  0  0
   -6.6438   -0.9637    1.6694 H   0  0  0  0  0  0  0  0  0  0  0  0
   -3.1271   -2.0387   -1.6344 H   0  0  0  0  0  0  0  0  0  0  0  0
   -3.3566    1.8963    0.0365 H   0  0  0  0  0  0  0  0  0  0  0  0
   -1.2403    3.1451    0.0270 H   0  0  0  0  0  0  0  0  0  0  0  0
   -1.1749   -1.7914   -0.0035 H   0  0  0  0  0  0  0  0  0  0  0  0
    3.2419   -0.5095   -0.1209 H   0  0  0  0  0  0  0  0  0  0  0  0
    2.3334    0.2350   -1.4618 H   0  0  0  0  0  0  0  0  0  0  0  0
    2.3412    1.2091    1.4395 H   0  0  0  0  0  0  0  0  0  0  0  0
    3.2099    1.9782    0.0857 H   0  0  0  0  0  0  0  0  0  0  0  0
   -4.0282    3.6458    7.2803 H   0  0  0  0  0  0  0  0  0  0  0  0
   -5.1664    2.7325    6.4477 H   0  0  0  0  0  0  0  0  0  0  0  0
  1  6  2  0  0  0  0
  1  2  1  0  0  0  0
  1 29  1  0  0  0  0
  2  3  2  0  0  0  0
  2 30  1  0  0  0  0
  3  4  1  0  0  0  0
  3 25  1  0  0  0  0
  4  5  2  0  0  0  0
  4 31  1  0  0  0  0
  5  6  1  0  0  0  0
  5 32  1  0  0  0  0
  6  7  1  0  0  0  0
  7 12  2  0  0  0  0
  7  8  1  0  0  0  0
  8  9  2  0  0  0  0
  8 33  1  0  0  0  0
  9 10  1  0  0  0  0
  9 24  1  0  0  0  0
 10 11  2  0  0  0  0
 10 23  1  0  0  0  0
 11 12  1  0  0  0  0
 11 34  1  0  0  0  0
 12 13  1  0  0  0  0
 13 18  2  0  0  0  0
 13 14  1  0  0  0  0
 14 15  2  0  0  0  0
 14 35  1  0  0  0  0
 15 16  1  0  0  0  0
 15 36  1  0  0  0  0
 16 22  1  0  0  0  0
 16 17  2  0  0  0  0
 17 18  1  0  0  0  0
 17 19  1  0  0  0  0
 18 37  1  0  0  0  0
 19 20  1  0  0  0  0
 20 21  1  0  0  0  0
 20 38  1  0  0  0  0
 20 39  1  0  0  0  0
 21 22  1  0  0  0  0
 21 40  1  0  0  0  0
 21 41  1  0  0  0  0
 25 26  2  0  0  0  0
 25 27  2  0  0  0  0
 25 28  1  0  0  0  0
 28 42  1  0  0  0  0
 28 43  1  0  0  0  0
M  END
$$$$
