ZINC03814584
  -OEChem-08230709403D

 43 45  0     0  0  0  0  0  0999 V2000
    4.6233    2.9320    5.6082 C   0  0  0  0  0  0  0  0  0  0  0  0
    3.9172    3.6785    7.1032 S   0  0  0  0  0  0  0  0  0  0  0  0
    2.1765    3.5487    6.8631 C   0  0  0  0  0  0  0  0  0  0  0  0
    1.3038    4.0310    7.8336 C   0  0  0  0  0  0  0  0  0  0  0  0
   -0.0574    3.9313    7.6484 C   0  0  0  0  0  0  0  0  0  0  0  0
   -0.5615    3.3450    6.4853 C   0  0  0  0  0  0  0  0  0  0  0  0
    0.3169    2.8565    5.5154 C   0  0  0  0  0  0  0  0  0  0  0  0
    1.6771    2.9636    5.7036 C   0  0  0  0  0  0  0  0  0  0  0  0
   -2.0212    3.2361    6.2839 C   0  0  0  0  0  0  0  0  0  0  0  0
   -4.1482    3.1532    6.6782 C   0  0  0  0  0  0  0  0  0  0  0  0
   -3.9990    3.0038    5.3469 C   0  0  0  0  0  0  0  0  0  0  0  0
   -2.6532    3.0586    5.0849 N   0  0  0  0  0  0  0  0  0  0  0  0
   -2.0427    2.9477    3.8284 C   0  0  0  0  0  0  0  0  0  0  0  0
   -2.2689    1.8262    3.0417 C   0  0  0  0  0  0  0  0  0  0  0  0
   -1.6661    1.7200    1.8035 C   0  0  0  0  0  0  0  0  0  0  0  0
   -0.8384    2.7293    1.3471 C   0  0  0  0  0  0  0  0  0  0  0  0
   -0.6070    3.8450    2.1305 C   0  0  0  0  0  0  0  0  0  0  0  0
   -1.2108    3.9592    3.3675 C   0  0  0  0  0  0  0  0  0  0  0  0
   -0.0712    2.5901   -0.2330 S   0  0  0  0  0  0  0  0  0  0  0  0
    0.0169    1.1920   -0.4714 O   0  0  0  0  0  0  0  0  0  0  0  0
    1.1033    3.3841   -0.1370 O   0  0  0  0  0  0  0  0  0  0  0  0
   -1.2451    3.3483   -1.3896 C   0  0  0  0  0  0  0  0  0  0  0  0
   -5.4585    3.1582    7.4226 C   0  0  0  0  0  0  0  0  0  0  0  0
   -5.7804    1.8527    7.8090 F   0  0  0  0  0  0  0  0  0  0  0  0
   -5.3462    3.9666    8.5589 F   0  0  0  0  0  0  0  0  0  0  0  0
   -6.4654    3.6601    6.5910 F   0  0  0  0  0  0  0  0  0  0  0  0
    5.7113    2.9660    5.6642 H   0  0  0  0  0  0  0  0  0  0  0  0
    4.2956    1.8954    5.5302 H   0  0  0  0  0  0  0  0  0  0  0  0
    4.2871    3.4863    4.7319 H   0  0  0  0  0  0  0  0  0  0  0  0
    1.6941    4.4844    8.7328 H   0  0  0  0  0  0  0  0  0  0  0  0
   -0.7343    4.3059    8.4020 H   0  0  0  0  0  0  0  0  0  0  0  0
   -0.0701    2.3990    4.6169 H   0  0  0  0  0  0  0  0  0  0  0  0
    2.3568    2.5895    4.9523 H   0  0  0  0  0  0  0  0  0  0  0  0
   -4.7891    2.8669    4.6234 H   0  0  0  0  0  0  0  0  0  0  0  0
   -2.9158    1.0379    3.3974 H   0  0  0  0  0  0  0  0  0  0  0  0
   -1.8416    0.8479    1.1911 H   0  0  0  0  0  0  0  0  0  0  0  0
    0.0431    4.6298    1.7731 H   0  0  0  0  0  0  0  0  0  0  0  0
   -1.0329    4.8327    3.9772 H   0  0  0  0  0  0  0  0  0  0  0  0
   -2.1917    2.8092   -1.3521 H   0  0  0  0  0  0  0  0  0  0  0  0
   -1.4086    4.3894   -1.1111 H   0  0  0  0  0  0  0  0  0  0  0  0
   -0.8404    3.3020   -2.4006 H   0  0  0  0  0  0  0  0  0  0  0  0
   -2.9359    3.2962    7.2263 N   0  3  0  0  0  0  0  0  0  0  0  0
   -2.7492    3.4316    8.2268 H   0  0  0  0  0  0  0  0  0  0  0  0
  1  2  1  0  0  0  0
  1 27  1  0  0  0  0
  1 28  1  0  0  0  0
  1 29  1  0  0  0  0
  2  3  1  0  0  0  0
  3  8  2  0  0  0  0
  3  4  1  0  0  0  0
  4  5  2  0  0  0  0
  4 30  1  0  0  0  0
  5  6  1  0  0  0  0
  5 31  1  0  0  0  0
  6  7  2  0  0  0  0
  6  9  1  0  0  0  0
  7  8  1  0  0  0  0
  7 32  1  0  0  0  0
  8 33  1  0  0  0  0
  9 12  1  0  0  0  0
  9 42  2  0  0  0  0
 10 11  2  0  0  0  0
 10 23  1  0  0  0  0
 10 42  1  0  0  0  0
 11 12  1  0  0  0  0
 11 34  1  0  0  0  0
 12 13  1  0  0  0  0
 13 18  2  0  0  0  0
 13 14  1  0  0  0  0
 14 15  2  0  0  0  0
 14 35  1  0  0  0  0
 15 16  1  0  0  0  0
 15 36  1  0  0  0  0
 16 17  2  0  0  0  0
 16 19  1  0  0  0  0
 17 18  1  0  0  0  0
 17 37  1  0  0  0  0
 18 38  1  0  0  0  0
 19 20  2  0  0  0  0
 19 21  2  0  0  0  0
 19 22  1  0  0  0  0
 22 39  1  0  0  0  0
 22 40  1  0  0  0  0
 22 41  1  0  0  0  0
 23 24  1  0  0  0  0
 23 25  1  0  0  0  0
 23 26  1  0  0  0  0
 42 43  1  0  0  0  0
M  CHG  1  42   1
M  END
$$$$
