ZINC03814745
  -OEChem-08230709403D

 46 49  0     0  0  0  0  0  0999 V2000
    8.9793    9.5767    2.4488 C   0  0  0  0  0  0  0  0  0  0  0  0
    8.0081    9.8215    1.4295 O   0  0  0  0  0  0  0  0  0  0  0  0
    7.1438    8.8120    1.1458 C   0  0  0  0  0  0  0  0  0  0  0  0
    6.1753    8.9849    0.1656 C   0  0  0  0  0  0  0  0  0  0  0  0
    5.2965    7.9639   -0.1256 C   0  0  0  0  0  0  0  0  0  0  0  0
    5.3811    6.7534    0.5671 C   0  0  0  0  0  0  0  0  0  0  0  0
    6.3536    6.5859    1.5561 C   0  0  0  0  0  0  0  0  0  0  0  0
    7.2313    7.6109    1.8372 C   0  0  0  0  0  0  0  0  0  0  0  0
    4.4421    5.6574    0.2593 C   0  0  0  0  0  0  0  0  0  0  0  0
    4.6963    4.3065    0.0221 C   0  0  0  0  0  0  0  0  0  0  0  0
    3.6811    3.5061   -0.2303 N   0  0  0  0  0  0  0  0  0  0  0  0
    2.4371    3.9562   -0.2727 C   0  0  0  0  0  0  0  0  0  0  0  0
    2.6625    5.6922    0.0876 S   0  0  0  0  0  0  0  0  0  0  0  0
    1.1871    3.2153   -0.5414 C   0  0  0  0  0  0  0  0  0  0  0  0
    1.2270    1.8447   -0.8042 C   0  0  0  0  0  0  0  0  0  0  0  0
    0.0566    1.1590   -1.0538 C   0  0  0  0  0  0  0  0  0  0  0  0
   -1.1555    1.8270   -1.0496 C   0  0  0  0  0  0  0  0  0  0  0  0
   -1.2039    3.1837   -0.7850 C   0  0  0  0  0  0  0  0  0  0  0  0
   -0.0398    3.8829   -0.5333 C   0  0  0  0  0  0  0  0  0  0  0  0
   -0.1013    5.5869   -0.2073 Cl  0  0  0  0  0  0  0  0  0  0  0  0
    6.0807    3.7810    0.0592 C   0  0  0  0  0  0  0  0  0  0  0  0
    7.1165    4.4978   -0.5411 C   0  0  0  0  0  0  0  0  0  0  0  0
    8.4048    4.0098   -0.4998 C   0  0  0  0  0  0  0  0  0  0  0  0
    8.6709    2.7982    0.1291 C   0  0  0  0  0  0  0  0  0  0  0  0
    7.6392    2.0790    0.7228 C   0  0  0  0  0  0  0  0  0  0  0  0
    6.3502    2.5658    0.6895 C   0  0  0  0  0  0  0  0  0  0  0  0
   10.3177    2.1732    0.1733 S   0  0  0  0  0  0  0  0  0  0  0  0
   11.2871    3.4278   -0.7082 C   0  0  0  0  0  0  0  0  0  0  0  0
    9.6024    8.7299    2.1611 H   0  0  0  0  0  0  0  0  0  0  0  0
    9.6040   10.4610    2.5753 H   0  0  0  0  0  0  0  0  0  0  0  0
    8.4724    9.3527    3.3874 H   0  0  0  0  0  0  0  0  0  0  0  0
    6.1105    9.9211   -0.3691 H   0  0  0  0  0  0  0  0  0  0  0  0
    4.5434    8.0993   -0.8878 H   0  0  0  0  0  0  0  0  0  0  0  0
    6.4201    5.6534    2.0970 H   0  0  0  0  0  0  0  0  0  0  0  0
    7.9861    7.4809    2.5987 H   0  0  0  0  0  0  0  0  0  0  0  0
    2.1723    1.3226   -0.8123 H   0  0  0  0  0  0  0  0  0  0  0  0
    0.0865    0.0988   -1.2575 H   0  0  0  0  0  0  0  0  0  0  0  0
   -2.0683    1.2855   -1.2498 H   0  0  0  0  0  0  0  0  0  0  0  0
   -2.1536    3.6980   -0.7788 H   0  0  0  0  0  0  0  0  0  0  0  0
    6.9096    5.4365   -1.0335 H   0  0  0  0  0  0  0  0  0  0  0  0
    9.2077    4.5666   -0.9601 H   0  0  0  0  0  0  0  0  0  0  0  0
    7.8483    1.1383    1.2106 H   0  0  0  0  0  0  0  0  0  0  0  0
    5.5494    2.0069    1.1507 H   0  0  0  0  0  0  0  0  0  0  0  0
   12.3342    3.1261   -0.7337 H   0  0  0  0  0  0  0  0  0  0  0  0
   10.9126    3.5266   -1.7270 H   0  0  0  0  0  0  0  0  0  0  0  0
   11.1969    4.3844   -0.1935 H   0  0  0  0  0  0  0  0  0  0  0  0
  1  2  1  0  0  0  0
  1 29  1  0  0  0  0
  1 30  1  0  0  0  0
  1 31  1  0  0  0  0
  2  3  1  0  0  0  0
  3  8  2  0  0  0  0
  3  4  1  0  0  0  0
  4  5  2  0  0  0  0
  4 32  1  0  0  0  0
  5  6  1  0  0  0  0
  5 33  1  0  0  0  0
  6  7  2  0  0  0  0
  6  9  1  0  0  0  0
  7  8  1  0  0  0  0
  7 34  1  0  0  0  0
  8 35  1  0  0  0  0
  9 13  1  0  0  0  0
  9 10  2  0  0  0  0
 10 11  1  0  0  0  0
 10 21  1  0  0  0  0
 11 12  2  0  0  0  0
 12 13  1  0  0  0  0
 12 14  1  0  0  0  0
 14 19  2  0  0  0  0
 14 15  1  0  0  0  0
 15 16  2  0  0  0  0
 15 36  1  0  0  0  0
 16 17  1  0  0  0  0
 16 37  1  0  0  0  0
 17 18  2  0  0  0  0
 17 38  1  0  0  0  0
 18 19  1  0  0  0  0
 18 39  1  0  0  0  0
 19 20  1  0  0  0  0
 21 26  2  0  0  0  0
 21 22  1  0  0  0  0
 22 23  2  0  0  0  0
 22 40  1  0  0  0  0
 23 24  1  0  0  0  0
 23 41  1  0  0  0  0
 24 25  2  0  0  0  0
 24 27  1  0  0  0  0
 25 26  1  0  0  0  0
 25 42  1  0  0  0  0
 26 43  1  0  0  0  0
 27 28  1  0  0  0  0
 28 44  1  0  0  0  0
 28 45  1  0  0  0  0
 28 46  1  0  0  0  0
M  END
$$$$
