
  ACD/Labs07171520343D

 42 45  0  0  0  0  0  0  0  0  1 V2000
   22.7508   -4.1892   69.9590 C   0  0  0  0  0  0  0  0  0  0  0  0
   21.1508   -5.6041   65.3089 N   0  0  0  0  0  0  0  0  0  0  0  0
   17.0768   -5.7551   66.4689 N   0  0  0  0  0  0  0  0  0  0  0  0
   21.5688   -4.5501   68.8449 C   0  0  0  0  0  0  0  0  0  0  0  0
   21.8607   -4.9081   67.4339 C   0  0  0  0  0  0  0  0  0  0  0  0
   20.7597   -5.2351   66.6659 C   0  0  0  0  0  0  0  0  0  0  0  0
   20.1657   -5.9872   64.4699 C   0  0  0  0  0  0  0  0  0  0  0  0
   20.7098   -6.4011   62.9969 C   0  0  0  0  0  0  0  0  0  0  0  0
   19.7178   -7.3052   62.2460 C   0  0  0  0  0  0  0  0  0  0  0  0
   19.4728   -8.7801   62.9960 C   0  0  0  0  0  0  0  0  0  0  0  0
   18.4878   -9.0547   63.8476 C   0  0  0  0  0  0  0  0  0  0  0  0
   17.4937   -8.0051   64.1500 C   0  0  0  0  0  0  0  0  0  0  0  0
   19.1634  -11.3913   64.3562 C   0  0  0  0  0  0  0  0  0  0  0  0
   17.8118   -6.5831   63.7090 C   0  0  0  0  0  0  0  0  0  0  0  0
   18.3617   -6.6301   62.2169 C   0  0  0  0  0  0  0  0  0  0  0  0
   18.8138   -6.0752   64.7519 C   0  0  0  0  0  0  0  0  0  0  0  0
   18.4188   -5.6731   66.1460 C   0  0  0  0  0  0  0  0  0  0  0  0
   19.4388   -5.2731   67.0430 C   0  0  0  0  0  0  0  0  0  0  0  0
   19.1038   -4.8822   68.4609 C   0  0  0  0  0  0  0  0  0  0  0  0
   20.1248   -4.5552   69.2740 C   0  0  0  0  0  0  0  0  0  0  0  0
   18.2946  -10.3736   64.4645 C   0  0  0  0  0  0  0  0  0  0  0  0
   23.3602   -4.9749   70.0639 H   0  0  0  0  0  0  0  0  0  0  0  0
   23.2754   -3.3972   69.6467 H   0  0  0  0  0  0  0  0  0  0  0  0
   22.3276   -3.9729   70.8388 H   0  0  0  0  0  0  0  0  0  0  0  0
   22.1058   -5.5745   65.0143 H   0  0  0  0  0  0  0  0  0  0  0  0
   16.4171   -6.0712   65.7870 H   0  0  0  0  0  0  0  0  0  0  0  0
   16.7660   -5.4984   67.3842 H   0  0  0  0  0  0  0  0  0  0  0  0
   22.7902   -4.9123   67.0649 H   0  0  0  0  0  0  0  0  0  0  0  0
   21.5787   -6.8860   63.0966 H   0  0  0  0  0  0  0  0  0  0  0  0
   20.8604   -5.5701   62.4615 H   0  0  0  0  0  0  0  0  0  0  0  0
   20.1100   -7.4551   61.3384 H   0  0  0  0  0  0  0  0  0  0  0  0
   20.1293   -9.5035   62.7822 H   0  0  0  0  0  0  0  0  0  0  0  0
   17.3643   -7.9864   65.1414 H   0  0  0  0  0  0  0  0  0  0  0  0
   16.6321   -8.2653   63.7143 H   0  0  0  0  0  0  0  0  0  0  0  0
   17.0312   -5.9589   63.6771 H   0  0  0  0  0  0  0  0  0  0  0  0
   17.7335   -7.1484   61.6366 H   0  0  0  0  0  0  0  0  0  0  0  0
   18.4488   -5.7021   61.8547 H   0  0  0  0  0  0  0  0  0  0  0  0
   18.1578   -4.8665   68.7848 H   0  0  0  0  0  0  0  0  0  0  0  0
   19.9127   -4.3008   70.2176 H   0  0  0  0  0  0  0  0  0  0  0  0
   20.0541  -11.3000   63.8116 H   0  0  0  0  0  0  0  0  0  0  0  0
   18.9488  -12.3005   64.8353 H   0  0  0  0  0  0  0  0  0  0  0  0
   17.4268  -10.5280   65.0350 H   0  0  0  0  0  0  0  0  0  0  0  0
  1  4  1  0  0  0  0
  1 22  1  0  0  0  0
  1 23  1  0  0  0  0
  1 24  1  0  0  0  0
  2  6  1  0  0  0  0
  2  7  2  0  0  0  0
  2 25  1  0  0  0  0
  3 17  1  0  0  0  0
  3 26  1  0  0  0  0
  3 27  1  0  0  0  0
  4 20  1  0  0  0  0
  4  5  2  0  0  0  0
  5  6  1  0  0  0  0
  5 28  1  0  0  0  0
  6 18  2  0  0  0  0
  7 16  1  0  0  0  0
  7  8  1  0  0  0  0
  8  9  1  0  0  0  0
  8 29  1  0  0  0  0
  8 30  1  0  0  0  0
  9 10  1  0  0  0  0
  9 15  1  0  0  0  0
  9 31  1  0  0  0  0
 10 11  2  0  0  0  0
 10 32  1  0  0  0  0
 11 21  1  0  0  0  0
 11 12  1  0  0  0  0
 12 14  1  0  0  0  0
 12 33  1  0  0  0  0
 12 34  1  0  0  0  0
 13 21  2  0  0  0  0
 13 40  1  0  0  0  0
 13 41  1  0  0  0  0
 14 16  1  0  0  0  0
 14 15  1  0  0  0  0
 14 35  1  0  0  0  0
 15 36  1  0  0  0  0
 15 37  1  0  0  0  0
 16 17  2  0  0  0  0
 17 18  1  0  0  0  0
 18 19  1  0  0  0  0
 19 20  2  0  0  0  0
 19 38  1  0  0  0  0
 20 39  1  0  0  0  0
 21 42  1  0  0  0  0
M  END
