
  ACD/Labs07171520343D

 50 52  0  0  0  0  0  0  0  0  2 V2000
   24.8409   -5.2287    5.3204 C   0  0  0  0  0  0  0  0  0  0  0  0
   25.2997   -6.0701    4.3242 C   0  0  0  0  0  0  0  0  0  0  0  0
   24.8009   -5.9572    3.0400 C   0  0  0  0  0  0  0  0  0  0  0  0
   23.8436   -5.0025    2.7517 C   0  0  0  0  0  0  0  0  0  0  0  0
   23.3890   -4.1573    3.7466 C   0  0  0  0  0  0  0  0  0  0  0  0
   23.8836   -4.2740    5.0322 C   0  0  0  0  0  0  0  0  0  0  0  0
   23.3002   -4.8791    1.3516 C   0  0  0  0  0  0  0  0  0  0  0  0
   21.4284   -5.4808   -0.0608 C   0  0  0  0  0  0  0  0  0  0  0  0
   20.1342   -6.2959   -0.1141 C   0  0  0  0  0  0  0  0  0  0  0  0
   20.4698   -7.7854    0.0009 C   0  0  0  0  0  0  0  0  0  0  0  0
   21.2369   -8.0286    1.3036 C   0  0  0  0  0  0  0  0  0  0  0  0
   22.4991   -7.1633    1.3158 C   0  0  0  0  0  0  0  0  0  0  0  0
   19.1759   -8.6019    0.0094 C   0  0  0  0  0  0  0  0  0  0  0  0
   19.5143  -10.0940   -0.0014 C   0  0  0  0  0  0  0  0  0  0  0  0
   18.2754  -10.8758    0.0067 N   0  0  0  0  0  0  0  0  0  0  0  0
   18.3283  -12.2225   -0.0006 C   0  0  0  0  0  0  0  0  0  0  0  0
   19.4036  -12.7882   -0.0139 O   0  0  0  0  0  0  0  0  0  0  0  0
   17.0754  -13.0131    0.0077 C   0  0  0  0  0  0  0  0  0  0  0  0
   17.1078  -14.4108    0.0003 C   0  0  0  0  0  0  0  0  0  0  0  0
   15.9154  -15.1085    0.0080 C   0  0  0  0  0  0  0  0  0  0  0  0
   14.7601  -14.4740    0.0169 N   0  0  0  0  0  0  0  0  0  0  0  0
   14.6848  -13.1581    0.0293 C   0  0  0  0  0  0  0  0  0  0  0  0
   15.8278  -12.3821    0.0225 C   0  0  0  0  0  0  0  0  0  0  0  0
   25.2300   -5.3174    6.3239 H   0  0  0  0  0  0  0  0  0  0  0  0
   26.0476   -6.8160    4.5494 H   0  0  0  0  0  0  0  0  0  0  0  0
   25.1593   -6.6146    2.2617 H   0  0  0  0  0  0  0  0  0  0  0  0
   22.6443   -3.4085    3.5204 H   0  0  0  0  0  0  0  0  0  0  0  0
   23.5249   -3.6168    5.8105 H   0  0  0  0  0  0  0  0  0  0  0  0
   24.0661   -5.1799    0.6367 H   0  0  0  0  0  0  0  0  0  0  0  0
   23.0134   -3.8446    1.1630 H   0  0  0  0  0  0  0  0  0  0  0  0
   22.0702   -5.7633   -0.8953 H   0  0  0  0  0  0  0  0  0  0  0  0
   21.1918   -4.4189   -0.1281 H   0  0  0  0  0  0  0  0  0  0  0  0
   19.6254   -6.1095   -1.0599 H   0  0  0  0  0  0  0  0  0  0  0  0
   19.4860   -6.0040    0.7122 H   0  0  0  0  0  0  0  0  0  0  0  0
   21.0851   -8.0867   -0.8469 H   0  0  0  0  0  0  0  0  0  0  0  0
   20.6060   -7.7640    2.1522 H   0  0  0  0  0  0  0  0  0  0  0  0
   21.5159   -9.0801    1.3707 H   0  0  0  0  0  0  0  0  0  0  0  0
   23.1359   -7.4379    0.4749 H   0  0  0  0  0  0  0  0  0  0  0  0
   23.0402   -7.3234    2.2484 H   0  0  0  0  0  0  0  0  0  0  0  0
   18.5858   -8.3568   -0.8737 H   0  0  0  0  0  0  0  0  0  0  0  0
   18.6031   -8.3657    0.9062 H   0  0  0  0  0  0  0  0  0  0  0  0
   20.1044  -10.3391    0.8817 H   0  0  0  0  0  0  0  0  0  0  0  0
   20.0871  -10.3301   -0.8982 H   0  0  0  0  0  0  0  0  0  0  0  0
   17.4170  -10.4242    0.0174 H   0  0  0  0  0  0  0  0  0  0  0  0
   18.0508  -14.9372   -0.0115 H   0  0  0  0  0  0  0  0  0  0  0  0
   15.9301  -16.1884    0.0020 H   0  0  0  0  0  0  0  0  0  0  0  0
   13.7165  -12.6800    0.0408 H   0  0  0  0  0  0  0  0  0  0  0  0
   15.7586  -11.3044    0.0282 H   0  0  0  0  0  0  0  0  0  0  0  0
   22.1064   -5.7407    1.2269 N   0  3  0  0  0  0  0  0  0  0  0  0
   21.4584   -5.5255    1.9937 H   0  0  0  0  0  0  0  0  0  0  0  0
  1  6  2  0  0  0  0
  1  2  1  0  0  0  0
  1 24  1  0  0  0  0
  2  3  2  0  0  0  0
  2 25  1  0  0  0  0
  3  4  1  0  0  0  0
  3 26  1  0  0  0  0
  4  5  2  0  0  0  0
  4  7  1  0  0  0  0
  5  6  1  0  0  0  0
  5 27  1  0  0  0  0
  6 28  1  0  0  0  0
  7 29  1  0  0  0  0
  7 30  1  0  0  0  0
  7 49  1  0  0  0  0
  8  9  1  0  0  0  0
  8 31  1  0  0  0  0
  8 32  1  0  0  0  0
  8 49  1  0  0  0  0
  9 10  1  0  0  0  0
  9 33  1  0  0  0  0
  9 34  1  0  0  0  0
 10 11  1  0  0  0  0
 10 13  1  0  0  0  0
 10 35  1  0  0  0  0
 11 12  1  0  0  0  0
 11 36  1  0  0  0  0
 11 37  1  0  0  0  0
 12 38  1  0  0  0  0
 12 39  1  0  0  0  0
 12 49  1  0  0  0  0
 13 14  1  0  0  0  0
 13 40  1  0  0  0  0
 13 41  1  0  0  0  0
 14 15  1  0  0  0  0
 14 42  1  0  0  0  0
 14 43  1  0  0  0  0
 15 16  1  0  0  0  0
 15 44  1  0  0  0  0
 16 17  2  0  0  0  0
 16 18  1  0  0  0  0
 18 23  2  0  0  0  0
 18 19  1  0  0  0  0
 19 20  2  0  0  0  0
 19 45  1  0  0  0  0
 20 21  1  0  0  0  0
 20 46  1  0  0  0  0
 21 22  2  0  0  0  0
 22 23  1  0  0  0  0
 22 47  1  0  0  0  0
 23 48  1  0  0  0  0
 49 50  1  0  0  0  0
M  CHG  1  49   1
M  END
