ZINC03833823
  -OEChem-08230709403D

 54 57  0     1  0  0  0  0  0999 V2000
    6.3886    3.7827    0.2158 C   0  0  0  0  0  0  0  0  0  0  0  0
    5.9162    3.7099    1.6693 C   0  0  2  0  0  0  0  0  0  0  0  0
    5.7709    2.2612    2.0941 C   0  0  0  0  0  0  0  0  0  0  0  0
    4.8491    1.5906    1.0650 C   0  0  0  0  0  0  0  0  0  0  0  0
    3.4905    2.2806    0.9873 C   0  0  1  0  0  0  0  0  0  0  0  0
    2.9696    2.1464    1.9353 H   0  0  0  0  0  0  0  0  0  0  0  0
    3.6411    3.7830    0.7077 C   0  0  2  0  0  0  0  0  0  0  0  0
    4.0988    3.9359   -0.2696 H   0  0  0  0  0  0  0  0  0  0  0  0
    4.5164    4.3677    1.8013 C   0  0  2  0  0  0  0  0  0  0  0  0
    4.0803    4.1718    2.7809 H   0  0  0  0  0  0  0  0  0  0  0  0
    4.8575    5.8552    1.6569 C   0  0  0  0  0  0  0  0  0  0  0  0
    6.1558    5.9974    2.4972 C   0  0  0  0  0  0  0  0  0  0  0  0
    6.8017    4.5902    2.5452 C   0  0  2  0  0  0  0  0  0  0  0  0
    6.8237    4.2211    3.4743 H   0  0  0  0  0  0  0  0  0  0  0  0
    8.2026    4.6396    1.9920 C   0  0  0  0  0  0  0  0  0  0  0  0
    8.5072    5.4938    1.1946 O   0  0  0  0  0  0  0  0  0  0  0  0
    9.2235    3.6229    2.4340 C   0  0  0  0  0  0  0  0  0  0  0  0
   10.4654    3.8773    1.7745 O   0  0  0  0  0  0  0  0  0  0  0  0
    2.2581    4.4397    0.7459 C   0  0  0  0  0  0  0  0  0  0  0  0
    1.4077    3.8901   -0.4015 C   0  0  0  0  0  0  0  0  0  0  0  0
    1.3650    2.3677   -0.2904 C   0  0  0  0  0  0  0  0  0  0  0  0
    0.1824    1.7594   -0.3747 C   0  0  0  0  0  0  0  0  0  0  0  0
    0.1050    0.2951   -0.3282 C   0  0  0  0  0  0  0  0  0  0  0  0
   -0.9204   -0.2808   -0.0301 O   0  0  0  0  0  0  0  0  0  0  0  0
    1.3737   -0.4607   -0.6715 C   0  0  0  0  0  0  0  0  0  0  0  0
    2.5078    0.1530    0.1488 C   0  0  0  0  0  0  0  0  0  0  0  0
    2.6629    1.6369   -0.1322 C   0  0  2  0  0  0  0  0  0  0  0  0
    3.4392    1.7924   -1.4415 C   0  0  0  0  0  0  0  0  0  0  0  0
    6.4572    4.8261   -0.0921 H   0  0  0  0  0  0  0  0  0  0  0  0
    7.3681    3.3128    0.1281 H   0  0  0  0  0  0  0  0  0  0  0  0
    5.6768    3.2611   -0.4241 H   0  0  0  0  0  0  0  0  0  0  0  0
    6.7460    1.7740    2.0923 H   0  0  0  0  0  0  0  0  0  0  0  0
    5.3316    2.2086    3.0903 H   0  0  0  0  0  0  0  0  0  0  0  0
    4.7033    0.5505    1.3567 H   0  0  0  0  0  0  0  0  0  0  0  0
    5.3194    1.6201    0.0822 H   0  0  0  0  0  0  0  0  0  0  0  0
    5.0439    6.1085    0.6132 H   0  0  0  0  0  0  0  0  0  0  0  0
    4.0614    6.4752    2.0691 H   0  0  0  0  0  0  0  0  0  0  0  0
    6.8346    6.7045    2.0203 H   0  0  0  0  0  0  0  0  0  0  0  0
    5.9139    6.3335    3.5055 H   0  0  0  0  0  0  0  0  0  0  0  0
    9.3520    3.6881    3.4236 H   0  0  0  0  0  0  0  0  0  0  0  0
    8.8744    2.6226    2.1781 H   0  0  0  0  0  0  0  0  0  0  0  0
   11.1705    3.2596    2.0119 H   0  0  0  0  0  0  0  0  0  0  0  0
    1.7749    4.2157    1.6970 H   0  0  0  0  0  0  0  0  0  0  0  0
    2.3643    5.5189    0.6359 H   0  0  0  0  0  0  0  0  0  0  0  0
    0.3948    4.2860   -0.3278 H   0  0  0  0  0  0  0  0  0  0  0  0
    1.8465    4.1840   -1.3549 H   0  0  0  0  0  0  0  0  0  0  0  0
   -0.7191    2.3444   -0.4818 H   0  0  0  0  0  0  0  0  0  0  0  0
    1.2570   -1.4278   -0.4455 H   0  0  0  0  0  0  0  0  0  0  0  0
    1.5890   -0.3593   -1.7352 H   0  0  0  0  0  0  0  0  0  0  0  0
    2.2967    0.0119    1.2088 H   0  0  0  0  0  0  0  0  0  0  0  0
    3.4404   -0.3541   -0.0985 H   0  0  0  0  0  0  0  0  0  0  0  0
    2.8880    1.3121   -2.2499 H   0  0  0  0  0  0  0  0  0  0  0  0
    3.5643    2.8516   -1.6662 H   0  0  0  0  0  0  0  0  0  0  0  0
    4.4184    1.3242   -1.3411 H   0  0  0  0  0  0  0  0  0  0  0  0
  1  2  1  0  0  0  0
  1 29  1  0  0  0  0
  1 30  1  0  0  0  0
  1 31  1  0  0  0  0
  2  9  1  0  0  0  0
  2 13  1  0  0  0  0
  2  3  1  0  0  0  0
  3  4  1  0  0  0  0
  3 32  1  0  0  0  0
  3 33  1  0  0  0  0
  4  5  1  0  0  0  0
  4 34  1  0  0  0  0
  4 35  1  0  0  0  0
  5  6  1  0  0  0  0
  5 27  1  0  0  0  0
  5  7  1  0  0  0  0
  7  8  1  0  0  0  0
  7  9  1  0  0  0  0
  7 19  1  0  0  0  0
  9 10  1  0  0  0  0
  9 11  1  0  0  0  0
 11 12  1  0  0  0  0
 11 36  1  0  0  0  0
 11 37  1  0  0  0  0
 12 13  1  0  0  0  0
 12 38  1  0  0  0  0
 12 39  1  0  0  0  0
 13 14  1  0  0  0  0
 13 15  1  0  0  0  0
 15 16  2  0  0  0  0
 15 17  1  0  0  0  0
 17 18  1  0  0  0  0
 17 40  1  0  0  0  0
 17 41  1  0  0  0  0
 18 42  1  0  0  0  0
 19 20  1  0  0  0  0
 19 43  1  0  0  0  0
 19 44  1  0  0  0  0
 20 21  1  0  0  0  0
 20 45  1  0  0  0  0
 20 46  1  0  0  0  0
 21 27  1  0  0  0  0
 21 22  2  0  0  0  0
 22 23  1  0  0  0  0
 22 47  1  0  0  0  0
 23 24  2  0  0  0  0
 23 25  1  0  0  0  0
 25 26  1  0  0  0  0
 25 48  1  0  0  0  0
 25 49  1  0  0  0  0
 26 27  1  0  0  0  0
 26 50  1  0  0  0  0
 26 51  1  0  0  0  0
 27 28  1  0  0  0  0
 28 52  1  0  0  0  0
 28 53  1  0  0  0  0
 28 54  1  0  0  0  0
M  END
$$$$
