ZINC04646295
  -OEChem-08230709403D

 62 67  0     1  0  0  0  0  0999 V2000
    1.8779    2.5801   -1.5983 C   0  0  0  0  0  0  0  0  0  0  0  0
    3.2866    1.9842   -1.6346 C   0  0  2  0  0  0  0  0  0  0  0  0
    3.4076    0.7479   -2.5497 C   0  0  0  0  0  0  0  0  0  0  0  0
    4.8480    0.2106   -2.4192 C   0  0  2  0  0  0  0  0  0  0  0  0
    5.1320    0.0426   -0.8865 C   0  0  2  0  0  0  0  0  0  0  0  0
    5.9084   -0.6741   -0.6187 H   0  0  0  0  0  0  0  0  0  0  0  0
    3.8509    0.0356   -0.0417 C   0  0  0  0  0  0  0  0  0  0  0  0
    3.8008    1.5573   -0.2337 C   0  0  1  0  0  0  0  0  0  0  0  0
    5.3374    1.5171   -0.4481 C   0  0  2  0  0  0  0  0  0  0  0  0
    5.5531    2.2812   -1.7811 C   0  0  2  0  0  0  0  0  0  0  0  0
    6.3850    2.9838   -1.7334 H   0  0  0  0  0  0  0  0  0  0  0  0
    4.2932    2.9279   -2.0728 O   0  0  0  0  0  0  0  0  0  0  0  0
    5.7392    1.2646   -2.7922 O   0  0  0  0  0  0  0  0  0  0  0  0
    6.2681    1.8476    0.7204 C   0  0  0  0  0  0  0  0  0  0  0  0
    7.6425    1.8712    0.2528 O   0  0  0  0  0  0  0  0  0  0  0  0
    8.5942    2.1492    1.1648 C   0  0  0  0  0  0  0  0  0  0  0  0
    8.2843    2.3661    2.3191 O   0  0  0  0  0  0  0  0  0  0  0  0
   10.0146    2.1904    0.7611 C   0  0  0  0  0  0  0  0  0  0  0  0
   10.3748    1.9360   -0.5637 C   0  0  0  0  0  0  0  0  0  0  0  0
   11.7026    1.9818   -0.9351 C   0  0  0  0  0  0  0  0  0  0  0  0
   12.6775    2.2677    0.0043 C   0  0  0  0  0  0  0  0  0  0  0  0
   12.3280    2.5152    1.3200 C   0  0  0  0  0  0  0  0  0  0  0  0
   11.0036    2.4783    1.7038 C   0  0  0  0  0  0  0  0  0  0  0  0
    3.3090    2.3260    0.8659 O   0  0  0  0  0  0  0  0  0  0  0  0
    3.6815    1.8129    2.1466 C   0  0  1  0  0  0  0  0  0  0  0  0
    4.7030    1.4350    2.1036 H   0  0  0  0  0  0  0  0  0  0  0  0
    3.5937    2.9302    3.1894 C   0  0  1  0  0  0  0  0  0  0  0  0
    2.5822    3.3361    3.2041 H   0  0  0  0  0  0  0  0  0  0  0  0
    3.9360    2.3587    4.5688 C   0  0  1  0  0  0  0  0  0  0  0  0
    3.8211    3.1359    5.3243 H   0  0  0  0  0  0  0  0  0  0  0  0
    2.9854    1.1982    4.8786 C   0  0  2  0  0  0  0  0  0  0  0  0
    3.2573    0.7499    5.8342 H   0  0  0  0  0  0  0  0  0  0  0  0
    3.0967    0.1478    3.7705 C   0  0  2  0  0  0  0  0  0  0  0  0
    4.1105   -0.2519    3.7490 H   0  0  0  0  0  0  0  0  0  0  0  0
    2.7959    0.7523    2.5110 O   0  0  0  0  0  0  0  0  0  0  0  0
    2.1066   -0.9868    4.0413 C   0  0  0  0  0  0  0  0  0  0  0  0
    2.3145   -2.0366    3.0944 O   0  0  0  0  0  0  0  0  0  0  0  0
    1.6432    1.6845    4.9426 O   0  0  0  0  0  0  0  0  0  0  0  0
    5.2843    1.8852    4.5688 O   0  0  0  0  0  0  0  0  0  0  0  0
    4.5206    3.9663    2.8584 O   0  0  0  0  0  0  0  0  0  0  0  0
    5.0599   -0.9935   -3.1591 O   0  0  0  0  0  0  0  0  0  0  0  0
    1.8922    3.5125   -1.0338 H   0  0  0  0  0  0  0  0  0  0  0  0
    1.5402    2.7766   -2.6159 H   0  0  0  0  0  0  0  0  0  0  0  0
    1.1977    1.8758   -1.1193 H   0  0  0  0  0  0  0  0  0  0  0  0
    2.6976   -0.0166   -2.2344 H   0  0  0  0  0  0  0  0  0  0  0  0
    3.2113    1.0324   -3.5835 H   0  0  0  0  0  0  0  0  0  0  0  0
    4.0125   -0.2682    0.9925 H   0  0  0  0  0  0  0  0  0  0  0  0
    3.0209   -0.4907   -0.5131 H   0  0  0  0  0  0  0  0  0  0  0  0
    6.0064    2.8239    1.1285 H   0  0  0  0  0  0  0  0  0  0  0  0
    6.1611    1.0892    1.4959 H   0  0  0  0  0  0  0  0  0  0  0  0
    9.6152    1.7083   -1.2970 H   0  0  0  0  0  0  0  0  0  0  0  0
   11.9821    1.7899   -1.9605 H   0  0  0  0  0  0  0  0  0  0  0  0
   13.7159    2.2982   -0.2910 H   0  0  0  0  0  0  0  0  0  0  0  0
   13.0940    2.7374    2.0482 H   0  0  0  0  0  0  0  0  0  0  0  0
   10.7321    2.6720    2.7310 H   0  0  0  0  0  0  0  0  0  0  0  0
    2.2612   -1.3710    5.0496 H   0  0  0  0  0  0  0  0  0  0  0  0
    1.0880   -0.6101    3.9483 H   0  0  0  0  0  0  0  0  0  0  0  0
    1.7200   -2.7909    3.2066 H   0  0  0  0  0  0  0  0  0  0  0  0
    1.4998    2.3549    5.6247 H   0  0  0  0  0  0  0  0  0  0  0  0
    5.9408    2.5675    4.3725 H   0  0  0  0  0  0  0  0  0  0  0  0
    4.5188    4.7085    3.4784 H   0  0  0  0  0  0  0  0  0  0  0  0
    4.8970   -0.9057   -4.1082 H   0  0  0  0  0  0  0  0  0  0  0  0
  1  2  1  0  0  0  0
  1 42  1  0  0  0  0
  1 43  1  0  0  0  0
  1 44  1  0  0  0  0
  2  8  1  0  0  0  0
  2 12  1  0  0  0  0
  2  3  1  0  0  0  0
  3  4  1  0  0  0  0
  3 45  1  0  0  0  0
  3 46  1  0  0  0  0
  4 13  1  0  0  0  0
  4  5  1  0  0  0  0
  4 41  1  0  0  0  0
  5  6  1  0  0  0  0
  5  9  1  0  0  0  0
  5  7  1  0  0  0  0
  7  8  1  0  0  0  0
  7 47  1  0  0  0  0
  7 48  1  0  0  0  0
  8  9  1  0  0  0  0
  8 24  1  0  0  0  0
  9 10  1  0  0  0  0
  9 14  1  0  0  0  0
 10 11  1  0  0  0  0
 10 12  1  0  0  0  0
 10 13  1  0  0  0  0
 14 15  1  0  0  0  0
 14 49  1  0  0  0  0
 14 50  1  0  0  0  0
 15 16  1  0  0  0  0
 16 17  2  0  0  0  0
 16 18  1  0  0  0  0
 18 23  2  0  0  0  0
 18 19  1  0  0  0  0
 19 20  2  0  0  0  0
 19 51  1  0  0  0  0
 20 21  1  0  0  0  0
 20 52  1  0  0  0  0
 21 22  2  0  0  0  0
 21 53  1  0  0  0  0
 22 23  1  0  0  0  0
 22 54  1  0  0  0  0
 23 55  1  0  0  0  0
 24 25  1  0  0  0  0
 25 26  1  0  0  0  0
 25 35  1  0  0  0  0
 25 27  1  0  0  0  0
 27 28  1  0  0  0  0
 27 29  1  0  0  0  0
 27 40  1  0  0  0  0
 29 30  1  0  0  0  0
 29 31  1  0  0  0  0
 29 39  1  0  0  0  0
 31 32  1  0  0  0  0
 31 33  1  0  0  0  0
 31 38  1  0  0  0  0
 33 34  1  0  0  0  0
 33 35  1  0  0  0  0
 33 36  1  0  0  0  0
 36 37  1  0  0  0  0
 36 56  1  0  0  0  0
 36 57  1  0  0  0  0
 37 58  1  0  0  0  0
 38 59  1  0  0  0  0
 39 60  1  0  0  0  0
 40 61  1  0  0  0  0
 41 62  1  0  0  0  0
M  END
$$$$
