
  ACD/Labs07171520403D

 38 40  0  0  0  0  0  0  0  0  1 V2000
   22.0823   -4.5516    0.4050 P   0  0  0  0  0  0  0  0  0  0  0  0
   22.3923   -3.4086    1.2920 O   0  0  0  0  0  0  0  0  0  0  0  0
   23.4503   -5.2786   -0.0310 O   0  0  0  0  0  0  0  0  0  0  0  0
   21.3143   -4.0186   -0.9060 O   0  0  0  0  0  0  0  0  0  0  0  0
   16.3463   -5.6906    4.5360 O   0  0  0  0  0  0  0  0  0  0  0  0
   17.6153   -5.0426    4.4260 C   0  0  0  0  0  0  0  0  0  0  0  0
   18.4044   -5.6586    3.2690 C   0  0  0  0  0  0  0  0  0  0  0  0
   17.7013   -5.4676    2.0230 O   0  0  0  0  0  0  0  0  0  0  0  0
   19.7484   -4.9226    3.0800 C   0  0  0  0  0  0  0  0  0  0  0  0
   20.8074   -5.6426    3.7140 O   0  0  0  0  0  0  0  0  0  0  0  0
   19.9513   -4.8966    1.5470 C   0  0  0  0  0  0  0  0  0  0  0  0
   21.1434   -5.5976    1.1880 O   0  0  0  0  0  0  0  0  0  0  0  0
   18.7034   -5.6176    0.9930 C   0  0  0  0  0  0  0  0  0  0  0  0
   18.2563   -4.9836   -0.2480 N   0  0  0  0  0  0  0  0  0  0  0  0
   17.3854   -3.9386   -0.3530 C   0  0  0  0  0  0  0  0  0  0  0  0
   17.2143   -3.6306   -1.6060 N   0  0  0  0  0  0  0  0  0  0  0  0
   17.9623   -4.4576   -2.3770 C   0  0  0  0  0  0  0  0  0  0  0  0
   18.1673   -4.5866   -3.7700 C   0  0  0  0  0  0  0  0  0  0  0  0
   17.6003   -3.8476   -4.5570 O   0  0  0  0  0  0  0  0  0  0  0  0
   19.0114   -5.5466   -4.2080 N   0  0  0  0  0  0  0  0  0  0  0  0
   19.6343   -6.3716   -3.3210 C   0  0  0  0  0  0  0  0  0  0  0  0
   20.4813   -7.3416   -3.7940 N   0  0  0  0  0  0  0  0  0  0  0  0
   19.4534   -6.2616   -2.0240 N   0  0  0  0  0  0  0  0  0  0  0  0
   18.6363   -5.3306   -1.5160 C   0  0  0  0  0  0  0  0  0  0  0  0
   23.4267   -6.2293    0.2782 H   0  0  0  0  0  0  0  0  0  0  0  0
   20.4146   -4.4522   -0.9550 H   0  0  0  0  0  0  0  0  0  0  0  0
   16.2774   -6.3938    3.8283 H   0  0  0  0  0  0  0  0  0  0  0  0
   18.1249   -5.1575    5.2787 H   0  0  0  0  0  0  0  0  0  0  0  0
   17.4803   -4.0663    4.2568 H   0  0  0  0  0  0  0  0  0  0  0  0
   18.5309   -6.6260    3.4884 H   0  0  0  0  0  0  0  0  0  0  0  0
   19.7465   -4.0077    3.4836 H   0  0  0  0  0  0  0  0  0  0  0  0
   21.4438   -5.9682    3.0148 H   0  0  0  0  0  0  0  0  0  0  0  0
   20.0513   -3.9700    1.1845 H   0  0  0  0  0  0  0  0  0  0  0  0
   18.8857   -6.5773    0.7791 H   0  0  0  0  0  0  0  0  0  0  0  0
   16.9443   -3.4782    0.4174 H   0  0  0  0  0  0  0  0  0  0  0  0
   19.1794   -5.6519   -5.1881 H   0  0  0  0  0  0  0  0  0  0  0  0
   20.9499   -7.9514   -3.1547 H   0  0  0  0  0  0  0  0  0  0  0  0
   20.6303   -7.4389   -4.7781 H   0  0  0  0  0  0  0  0  0  0  0  0
  1 12  1  0  0  0  0
  1  4  1  0  0  0  0
  1  3  1  0  0  0  0
  1  2  2  0  0  0  0
  3 25  1  0  0  0  0
  4 26  1  0  0  0  0
  5  6  1  0  0  0  0
  5 27  1  0  0  0  0
  6  7  1  0  0  0  0
  6 28  1  0  0  0  0
  6 29  1  0  0  0  0
  7  9  1  0  0  0  0
  7  8  1  0  0  0  0
  7 30  1  0  0  0  0
  8 13  1  0  0  0  0
  9 11  1  0  0  0  0
  9 10  1  0  0  0  0
  9 31  1  0  0  0  0
 10 32  1  0  0  0  0
 11 13  1  0  0  0  0
 11 12  1  0  0  0  0
 11 33  1  0  0  0  0
 13 14  1  0  0  0  0
 13 34  1  0  0  0  0
 14 24  1  0  0  0  0
 14 15  1  0  0  0  0
 15 16  2  0  0  0  0
 15 35  1  0  0  0  0
 16 17  1  0  0  0  0
 17 24  2  0  0  0  0
 17 18  1  0  0  0  0
 18 20  1  0  0  0  0
 18 19  2  0  0  0  0
 20 21  1  0  0  0  0
 20 36  1  0  0  0  0
 21 23  2  0  0  0  0
 21 22  1  0  0  0  0
 22 37  1  0  0  0  0
 22 38  1  0  0  0  0
 23 24  1  0  0  0  0
M  END
