
  ACD/Labs07171520393D

 61 65  0  0  0  0  0  0  0  0  1 V2000
   26.3171   -4.8853   60.3483 N   0  0  0  0  0  0  0  0  0  0  0  0
   26.3075   -5.3808   61.6069 C   0  0  0  0  0  0  0  0  0  0  0  0
   25.1183   -5.8647   62.1704 C   0  0  0  0  0  0  0  0  0  0  0  0
   23.9769   -5.3209   60.1154 C   0  0  0  0  0  0  0  0  0  0  0  0
   25.1908   -4.8440   59.6006 C   0  0  0  0  0  0  0  0  0  0  0  0
   23.9336   -5.8386   61.4196 C   0  0  0  0  0  0  0  0  0  0  0  0
   22.7249   -6.3093   61.9808 N   0  0  0  0  0  0  0  0  0  0  0  0
   22.2755   -5.8305   63.3064 C   0  0  0  0  0  0  0  0  0  0  0  0
   20.9781   -5.0409   63.1268 C   0  0  0  0  0  0  0  0  0  0  0  0
   20.4660   -6.2967   61.0311 C   0  0  0  0  0  0  0  0  0  0  0  0
   21.7587   -7.0989   61.1856 C   0  0  0  0  0  0  0  0  0  0  0  0
   19.9224   -5.8949   62.4089 C   0  0  0  0  0  0  0  0  0  0  0  0
   18.5946   -5.1383   62.2663 C   0  0  0  0  0  0  0  0  0  0  0  0
   18.6307   -3.9090   62.3072 O   0  0  0  0  0  0  0  0  0  0  0  0
   17.3651   -5.7847   62.0810 N   0  0  0  0  0  0  0  0  0  0  0  0
   17.2251   -7.2650   62.1345 C   0  0  0  0  0  0  0  0  0  0  0  0
   16.3009   -7.7215   61.0058 C   0  0  0  0  0  0  0  0  0  0  0  0
   15.2171   -5.4972   60.9241 C   0  0  0  0  0  0  0  0  0  0  0  0
   16.1108   -4.9872   62.0529 C   0  0  0  0  0  0  0  0  0  0  0  0
   15.0750   -6.9401   61.0307 N   0  0  0  0  0  0  0  0  0  0  0  0
   14.0318   -7.4970   59.7682 S   0  0  0  0  0  0  0  0  0  0  0  0
   12.6473   -6.7397   59.8511 O   0  0  0  0  0  0  0  0  0  0  0  0
   13.7461   -9.0390   59.9637 O   0  0  0  0  0  0  0  0  0  0  0  0
   14.7396   -7.2372   58.1846 C   0  0  0  0  0  0  0  0  0  0  0  0
   14.5437   -6.0190   57.5165 C   0  0  0  0  0  0  0  0  0  0  0  0
   15.5106   -8.2451   57.5861 C   0  0  0  0  0  0  0  0  0  0  0  0
   16.1001   -8.0298   56.3329 C   0  0  0  0  0  0  0  0  0  0  0  0
   15.1390   -5.7994   56.2661 C   0  0  0  0  0  0  0  0  0  0  0  0
   15.9156   -6.8069   55.6719 C   0  0  0  0  0  0  0  0  0  0  0  0
   16.5090   -6.5880   54.4200 C   0  0  0  0  0  0  0  0  0  0  0  0
   15.5635   -4.3515   54.3624 C   0  0  0  0  0  0  0  0  0  0  0  0
   14.9655   -4.5711   55.6111 C   0  0  0  0  0  0  0  0  0  0  0  0
   16.3334   -5.3602   53.7661 C   0  0  0  0  0  0  0  0  0  0  0  0
   17.0636   -5.0908   52.2327 Cl  0  0  0  0  0  0  0  0  0  0  0  0
   27.2215   -5.4056   62.1811 H   0  0  0  0  0  0  0  0  0  0  0  0
   25.1257   -6.2733   63.1702 H   0  0  0  0  0  0  0  0  0  0  0  0
   23.0817   -5.2564   59.5153 H   0  0  0  0  0  0  0  0  0  0  0  0
   25.2256   -4.4394   58.5998 H   0  0  0  0  0  0  0  0  0  0  0  0
   22.0948   -6.6869   63.9562 H   0  0  0  0  0  0  0  0  0  0  0  0
   23.0242   -5.1826   63.7620 H   0  0  0  0  0  0  0  0  0  0  0  0
   20.6045   -4.7425   64.1063 H   0  0  0  0  0  0  0  0  0  0  0  0
   21.1947   -4.1503   62.5360 H   0  0  0  0  0  0  0  0  0  0  0  0
   19.7318   -6.9043   60.5024 H   0  0  0  0  0  0  0  0  0  0  0  0
   20.6688   -5.3975   60.4489 H   0  0  0  0  0  0  0  0  0  0  0  0
   22.1643   -7.3429   60.2040 H   0  0  0  0  0  0  0  0  0  0  0  0
   21.5412   -8.0255   61.7173 H   0  0  0  0  0  0  0  0  0  0  0  0
   19.7719   -6.7857   63.0172 H   0  0  0  0  0  0  0  0  0  0  0  0
   18.1662   -7.7979   62.0223 H   0  0  0  0  0  0  0  0  0  0  0  0
   16.7755   -7.5353   63.0902 H   0  0  0  0  0  0  0  0  0  0  0  0
   16.8121   -7.5623   60.0566 H   0  0  0  0  0  0  0  0  0  0  0  0
   16.0839   -8.7825   61.1276 H   0  0  0  0  0  0  0  0  0  0  0  0
   15.6872   -5.2491   59.9733 H   0  0  0  0  0  0  0  0  0  0  0  0
   14.2450   -5.0092   60.9868 H   0  0  0  0  0  0  0  0  0  0  0  0
   15.5936   -5.1226   63.0026 H   0  0  0  0  0  0  0  0  0  0  0  0
   16.2813   -3.9238   61.8911 H   0  0  0  0  0  0  0  0  0  0  0  0
   13.9576   -5.2382   57.9784 H   0  0  0  0  0  0  0  0  0  0  0  0
   15.6730   -9.1815   58.0987 H   0  0  0  0  0  0  0  0  0  0  0  0
   16.7013   -8.8050   55.8823 H   0  0  0  0  0  0  0  0  0  0  0  0
   17.1022   -7.3634   53.9579 H   0  0  0  0  0  0  0  0  0  0  0  0
   15.4298   -3.4056   53.8594 H   0  0  0  0  0  0  0  0  0  0  0  0
   14.3727   -3.7920   56.0670 H   0  0  0  0  0  0  0  0  0  0  0  0
  1  2  1  0  0  0  0
  1  5  2  0  0  0  0
  2 35  1  0  0  0  0
  2  3  2  0  0  0  0
  3 36  1  0  0  0  0
  3  6  1  0  0  0  0
  4 37  1  0  0  0  0
  4  5  1  0  0  0  0
  4  6  2  0  0  0  0
  5 38  1  0  0  0  0
  6  7  1  0  0  0  0
  7  8  1  0  0  0  0
  7 11  1  0  0  0  0
  8 40  1  0  0  0  0
  8 39  1  0  0  0  0
  8  9  1  0  0  0  0
  9 42  1  0  0  0  0
  9 41  1  0  0  0  0
  9 12  1  0  0  0  0
 10 44  1  0  0  0  0
 10 43  1  0  0  0  0
 10 11  1  0  0  0  0
 10 12  1  0  0  0  0
 11 46  1  0  0  0  0
 11 45  1  0  0  0  0
 12 47  1  0  0  0  0
 12 13  1  0  0  0  0
 13 14  2  0  0  0  0
 13 15  1  0  0  0  0
 15 16  1  0  0  0  0
 15 19  1  0  0  0  0
 16 49  1  0  0  0  0
 16 48  1  0  0  0  0
 16 17  1  0  0  0  0
 17 51  1  0  0  0  0
 17 50  1  0  0  0  0
 17 20  1  0  0  0  0
 18 53  1  0  0  0  0
 18 52  1  0  0  0  0
 18 19  1  0  0  0  0
 18 20  1  0  0  0  0
 19 55  1  0  0  0  0
 19 54  1  0  0  0  0
 20 21  1  0  0  0  0
 21 22  2  0  0  0  0
 21 23  2  0  0  0  0
 21 24  1  0  0  0  0
 24 26  1  0  0  0  0
 24 25  2  0  0  0  0
 25 56  1  0  0  0  0
 25 28  1  0  0  0  0
 26 57  1  0  0  0  0
 26 27  2  0  0  0  0
 27 58  1  0  0  0  0
 27 29  1  0  0  0  0
 28 29  1  0  0  0  0
 28 32  2  0  0  0  0
 29 30  2  0  0  0  0
 30 59  1  0  0  0  0
 30 33  1  0  0  0  0
 31 60  1  0  0  0  0
 31 33  2  0  0  0  0
 31 32  1  0  0  0  0
 32 61  1  0  0  0  0
 33 34  1  0  0  0  0
M  END
