
  ACD/Labs07171520393D

 70 74  0  0  0  0  0  0  0  0  2 V2000
   12.5332   -9.8064   -1.0236 H   0  0  0  0  0  0  0  0  0  0  0  0
   14.2487  -10.6424   -1.7082 C   0  0  0  0  0  0  0  0  0  0  0  0
   13.7690  -10.9350   -3.1064 C   0  0  0  0  0  0  0  0  0  0  0  0
   15.5257  -10.9736   -1.3387 N   0  0  0  0  0  0  0  0  0  0  0  0
   16.0079  -10.6946    0.0209 C   0  0  0  0  0  0  0  0  0  0  0  0
   17.3080   -9.8898   -0.0724 C   0  0  0  0  0  0  0  0  0  0  0  0
   18.3081  -10.6440   -0.9516 C   0  0  0  0  0  0  0  0  0  0  0  0
   17.7340  -10.7996   -2.3617 C   0  0  0  0  0  0  0  0  0  0  0  0
   16.4390  -11.6150   -2.2943 C   0  0  0  0  0  0  0  0  0  0  0  0
   19.5335   -9.9115   -1.0145 O   0  0  0  0  0  0  0  0  0  0  0  0
   20.6629  -10.6197   -1.2812 C   0  0  0  0  0  0  0  0  0  0  0  0
   20.5739  -11.9736   -1.5939 C   0  0  0  0  0  0  0  0  0  0  0  0
   21.6983  -12.7012   -1.8592 C   0  0  0  0  0  0  0  0  0  0  0  0
   22.9522  -12.0847   -1.8285 C   0  0  0  0  0  0  0  0  0  0  0  0
   23.0447  -10.7175   -1.5183 C   0  0  0  0  0  0  0  0  0  0  0  0
   21.8941   -9.9907   -1.2455 C   0  0  0  0  0  0  0  0  0  0  0  0
   24.3888  -10.4056   -1.5666 N   0  0  0  0  0  0  0  0  0  0  0  0
   25.0574  -11.5459   -1.8925 C   0  0  0  0  0  0  0  0  0  0  0  0
   26.5520  -11.6546   -2.0527 C   0  0  0  0  0  0  0  0  0  0  0  0
   24.9849   -9.0915   -1.3141 C   0  0  0  0  0  0  0  0  0  0  0  0
   25.0658   -8.3200   -2.6062 C   0  0  0  0  0  0  0  0  0  0  0  0
   26.2081   -8.4248   -3.3979 C   0  0  0  0  0  0  0  0  0  0  0  0
   26.3109   -7.7458   -4.5729 C   0  0  0  0  0  0  0  0  0  0  0  0
   25.2563   -6.9165   -4.9913 C   0  0  0  0  0  0  0  0  0  0  0  0
   25.3291   -6.1947   -6.1950 C   0  0  0  0  0  0  0  0  0  0  0  0
   24.2881   -5.4017   -6.5685 C   0  0  0  0  0  0  0  0  0  0  0  0
   23.1481   -5.2925   -5.7741 C   0  0  0  0  0  0  0  0  0  0  0  0
   23.0426   -5.9763   -4.6022 C   0  0  0  0  0  0  0  0  0  0  0  0
   24.0971   -6.8057   -4.1836 C   0  0  0  0  0  0  0  0  0  0  0  0
   24.0248   -7.5270   -2.9795 C   0  0  0  0  0  0  0  0  0  0  0  0
   22.0155   -4.4037   -6.2194 C   0  0  0  0  0  0  0  0  0  0  0  0
   13.8276  -12.0072   -3.2937 H   0  0  0  0  0  0  0  0  0  0  0  0
   12.7361  -10.6035   -3.2131 H   0  0  0  0  0  0  0  0  0  0  0  0
   14.3963  -10.4061   -3.8239 H   0  0  0  0  0  0  0  0  0  0  0  0
   16.1959  -11.6335    0.5418 H   0  0  0  0  0  0  0  0  0  0  0  0
   15.2588  -10.1174    0.5629 H   0  0  0  0  0  0  0  0  0  0  0  0
   17.7270   -9.7587    0.9252 H   0  0  0  0  0  0  0  0  0  0  0  0
   17.1009   -8.9140   -0.5117 H   0  0  0  0  0  0  0  0  0  0  0  0
   18.4956  -11.6294   -0.5251 H   0  0  0  0  0  0  0  0  0  0  0  0
   17.5231   -9.8151   -2.7793 H   0  0  0  0  0  0  0  0  0  0  0  0
   18.4566  -11.3161   -2.9937 H   0  0  0  0  0  0  0  0  0  0  0  0
   16.6622  -12.6290   -1.9623 H   0  0  0  0  0  0  0  0  0  0  0  0
   15.9744  -11.6451   -3.2799 H   0  0  0  0  0  0  0  0  0  0  0  0
   19.6069  -12.4535   -1.6230 H   0  0  0  0  0  0  0  0  0  0  0  0
   21.6185  -13.7517   -2.0971 H   0  0  0  0  0  0  0  0  0  0  0  0
   21.9599   -8.9395   -1.0062 H   0  0  0  0  0  0  0  0  0  0  0  0
   26.8222  -11.4488   -3.0884 H   0  0  0  0  0  0  0  0  0  0  0  0
   27.0409  -10.9323   -1.3991 H   0  0  0  0  0  0  0  0  0  0  0  0
   26.8737  -12.6615   -1.7865 H   0  0  0  0  0  0  0  0  0  0  0  0
   24.3681   -8.5435   -0.6017 H   0  0  0  0  0  0  0  0  0  0  0  0
   25.9867   -9.2196   -0.9041 H   0  0  0  0  0  0  0  0  0  0  0  0
   27.0220   -9.0578   -3.0762 H   0  0  0  0  0  0  0  0  0  0  0  0
   27.2005   -7.8397   -5.1779 H   0  0  0  0  0  0  0  0  0  0  0  0
   26.2062   -6.2695   -6.8206 H   0  0  0  0  0  0  0  0  0  0  0  0
   24.3464   -4.8483   -7.4941 H   0  0  0  0  0  0  0  0  0  0  0  0
   22.1533   -5.8817   -3.9966 H   0  0  0  0  0  0  0  0  0  0  0  0
   23.1478   -7.4520   -2.3538 H   0  0  0  0  0  0  0  0  0  0  0  0
   22.1669   -3.3982   -5.8268 H   0  0  0  0  0  0  0  0  0  0  0  0
   22.8157   -3.9309   -8.0564 H   0  0  0  0  0  0  0  0  0  0  0  0
   21.8390   -5.2768   -8.0754 H   0  0  0  0  0  0  0  0  0  0  0  0
   19.9689   -4.3613   -6.0001 H   0  0  0  0  0  0  0  0  0  0  0  0
   20.6116   -5.8952   -6.0119 H   0  0  0  0  0  0  0  0  0  0  0  0
   13.4918  -10.0718   -0.7971 N   0  3  0  0  0  0  0  0  0  0  0  0
   13.8655   -9.8934    0.1425 H   0  0  0  0  0  0  0  0  0  0  0  0
   21.9581   -4.3413   -7.6905 N   0  3  0  0  0  0  0  0  0  0  0  0
   21.1611   -3.7588   -7.9727 H   0  0  0  0  0  0  0  0  0  0  0  0
   20.7487   -4.9386   -5.6897 N   0  3  0  0  0  0  0  0  0  0  0  0
   20.7826   -4.9323   -4.6635 H   0  0  0  0  0  0  0  0  0  0  0  0
   24.2185  -12.5288   -2.0459 N   0  3  0  0  0  0  0  0  0  0  0  0
   24.4739  -13.4920   -2.2932 H   0  0  0  0  0  0  0  0  0  0  0  0
  1 63  1  0  0  0  0
  2  3  1  0  0  0  0
  2  4  1  0  0  0  0
  2 63  2  0  0  0  0
  3 32  1  0  0  0  0
  3 33  1  0  0  0  0
  3 34  1  0  0  0  0
  4  9  1  0  0  0  0
  4  5  1  0  0  0  0
  5  6  1  0  0  0  0
  5 35  1  0  0  0  0
  5 36  1  0  0  0  0
  6  7  1  0  0  0  0
  6 37  1  0  0  0  0
  6 38  1  0  0  0  0
  7  8  1  0  0  0  0
  7 10  1  0  0  0  0
  7 39  1  0  0  0  0
  8  9  1  0  0  0  0
  8 40  1  0  0  0  0
  8 41  1  0  0  0  0
  9 42  1  0  0  0  0
  9 43  1  0  0  0  0
 10 11  1  0  0  0  0
 11 16  2  0  0  0  0
 11 12  1  0  0  0  0
 12 13  2  0  0  0  0
 12 44  1  0  0  0  0
 13 14  1  0  0  0  0
 13 45  1  0  0  0  0
 14 15  2  0  0  0  0
 14 69  1  0  0  0  0
 15 16  1  0  0  0  0
 15 17  1  0  0  0  0
 16 46  1  0  0  0  0
 17 18  1  0  0  0  0
 17 20  1  0  0  0  0
 18 19  1  0  0  0  0
 18 69  2  0  0  0  0
 19 47  1  0  0  0  0
 19 48  1  0  0  0  0
 19 49  1  0  0  0  0
 20 21  1  0  0  0  0
 20 50  1  0  0  0  0
 20 51  1  0  0  0  0
 21 30  2  0  0  0  0
 21 22  1  0  0  0  0
 22 23  2  0  0  0  0
 22 52  1  0  0  0  0
 23 24  1  0  0  0  0
 23 53  1  0  0  0  0
 24 29  2  0  0  0  0
 24 25  1  0  0  0  0
 25 26  2  0  0  0  0
 25 54  1  0  0  0  0
 26 27  1  0  0  0  0
 26 55  1  0  0  0  0
 27 28  2  0  0  0  0
 27 31  1  0  0  0  0
 28 29  1  0  0  0  0
 28 56  1  0  0  0  0
 29 30  1  0  0  0  0
 30 57  1  0  0  0  0
 31 58  1  0  0  0  0
 31 65  1  0  0  0  0
 31 67  1  0  0  0  0
 59 65  1  0  0  0  0
 60 65  1  0  0  0  0
 61 67  1  0  0  0  0
 62 67  1  0  0  0  0
 63 64  1  0  0  0  0
 65 66  1  0  0  0  0
 67 68  1  0  0  0  0
 69 70  1  0  0  0  0
M  CHG  4  63   1  65   1  67   1  69   1
M  END
