ZINC03815379
  -OEChem-08230709403D

 75 79  0     0  0  0  0  0  0999 V2000
   17.6153   -0.7836   -1.7674 C   0  0  0  0  0  0  0  0  0  0  0  0
   16.6203   -2.6587   -0.6017 C   0  0  0  0  0  0  0  0  0  0  0  0
   15.5490   -3.7472   -0.7019 C   0  0  0  0  0  0  0  0  0  0  0  0
   14.1571   -2.2571   -2.0061 C   0  0  0  0  0  0  0  0  0  0  0  0
   15.2284   -1.1687   -1.9060 C   0  0  0  0  0  0  0  0  0  0  0  0
   13.1620   -4.1322   -0.8404 C   0  0  0  0  0  0  0  0  0  0  0  0
   11.8009   -3.4458   -0.7102 C   0  0  0  0  0  0  0  0  0  0  0  0
   10.6933   -4.5011   -0.7338 C   0  0  0  0  0  0  0  0  0  0  0  0
    9.3899   -3.8439   -0.6091 N   0  0  0  0  0  0  0  0  0  0  0  0
    8.2326   -4.5993   -0.6058 C   0  0  0  0  0  0  0  0  0  0  0  0
    8.3336   -5.9221   -0.7171 N   0  0  0  0  0  0  0  0  0  0  0  0
    7.2657   -6.6941   -0.7205 C   0  0  0  0  0  0  0  0  0  0  0  0
    6.0019   -6.0908   -0.6024 C   0  0  0  0  0  0  0  0  0  0  0  0
    4.8170   -6.8450   -0.5980 C   0  0  0  0  0  0  0  0  0  0  0  0
    3.6151   -6.1659   -0.4776 C   0  0  0  0  0  0  0  0  0  0  0  0
    3.6214   -4.7591   -0.3651 C   0  0  0  0  0  0  0  0  0  0  0  0
    4.7461   -4.0733   -0.3767 N   0  0  0  0  0  0  0  0  0  0  0  0
    5.9306   -4.6779   -0.4851 C   0  0  0  0  0  0  0  0  0  0  0  0
    7.0732   -3.9798   -0.4922 N   0  0  0  0  0  0  0  0  0  0  0  0
    2.4159   -4.0829   -0.2453 N   0  0  0  0  0  0  0  0  0  0  0  0
    2.4047   -2.7396   -0.1368 C   0  0  0  0  0  0  0  0  0  0  0  0
    3.4509   -2.1204   -0.1441 O   0  0  0  0  0  0  0  0  0  0  0  0
    1.2336   -2.0827   -0.0204 N   0  0  0  0  0  0  0  0  0  0  0  0
    1.2132   -0.6815   -0.0198 C   0  0  0  0  0  0  0  0  0  0  0  0
    2.1374    0.0268   -0.7760 C   0  0  0  0  0  0  0  0  0  0  0  0
    2.1165    1.4076   -0.7753 C   0  0  0  0  0  0  0  0  0  0  0  0
    1.1724    2.0869   -0.0194 C   0  0  0  0  0  0  0  0  0  0  0  0
    0.2487    1.3798    0.7363 C   0  0  0  0  0  0  0  0  0  0  0  0
    0.2686   -0.0010    0.7366 C   0  0  0  0  0  0  0  0  0  0  0  0
    1.1526    3.4465   -0.0188 O   0  0  0  0  0  0  0  0  0  0  0  0
    0.1534    4.0805    0.7823 C   0  0  0  0  0  0  0  0  0  0  0  0
    2.3334   -6.9109   -0.4667 C   0  0  0  0  0  0  0  0  0  0  0  0
    1.6588   -7.1615   -1.6616 C   0  0  0  0  0  0  0  0  0  0  0  0
    0.4677   -7.8608   -1.6452 C   0  0  0  0  0  0  0  0  0  0  0  0
   -0.0618   -8.3027   -0.4463 C   0  0  0  0  0  0  0  0  0  0  0  0
    0.5994   -8.0524    0.7426 C   0  0  0  0  0  0  0  0  0  0  0  0
    1.7942   -7.3592    0.7391 C   0  0  0  0  0  0  0  0  0  0  0  0
    2.6226   -7.0462    2.2322 Cl  0  0  0  0  0  0  0  0  0  0  0  0
    2.3181   -6.6015   -3.1667 Cl  0  0  0  0  0  0  0  0  0  0  0  0
   18.5870   -1.2771   -1.7491 H   0  0  0  0  0  0  0  0  0  0  0  0
   17.5415   -0.1595   -2.6580 H   0  0  0  0  0  0  0  0  0  0  0  0
   17.5065   -0.1624   -0.8784 H   0  0  0  0  0  0  0  0  0  0  0  0
   16.4476   -2.0597    0.2924 H   0  0  0  0  0  0  0  0  0  0  0  0
   17.6052   -3.1221   -0.5444 H   0  0  0  0  0  0  0  0  0  0  0  0
   15.5788   -4.3701    0.1920 H   0  0  0  0  0  0  0  0  0  0  0  0
   15.7375   -4.3631   -1.5812 H   0  0  0  0  0  0  0  0  0  0  0  0
   14.3297   -2.8561   -2.9003 H   0  0  0  0  0  0  0  0  0  0  0  0
   13.1721   -1.7938   -2.0631 H   0  0  0  0  0  0  0  0  0  0  0  0
   15.0399   -0.5527   -1.0266 H   0  0  0  0  0  0  0  0  0  0  0  0
   15.1987   -0.5454   -2.7997 H   0  0  0  0  0  0  0  0  0  0  0  0
   13.3013   -4.8236   -0.0094 H   0  0  0  0  0  0  0  0  0  0  0  0
   13.2035   -4.6815   -1.7810 H   0  0  0  0  0  0  0  0  0  0  0  0
   11.6616   -2.7544   -1.5413 H   0  0  0  0  0  0  0  0  0  0  0  0
   11.7594   -2.8965    0.2303 H   0  0  0  0  0  0  0  0  0  0  0  0
   10.8325   -5.1925    0.0973 H   0  0  0  0  0  0  0  0  0  0  0  0
   10.7347   -5.0504   -1.6743 H   0  0  0  0  0  0  0  0  0  0  0  0
    9.3392   -2.8785   -0.5289 H   0  0  0  0  0  0  0  0  0  0  0  0
    7.3596   -7.7661   -0.8117 H   0  0  0  0  0  0  0  0  0  0  0  0
    4.8419   -7.9212   -0.6854 H   0  0  0  0  0  0  0  0  0  0  0  0
    1.5812   -4.5770   -0.2395 H   0  0  0  0  0  0  0  0  0  0  0  0
    0.4049   -2.5799    0.0630 H   0  0  0  0  0  0  0  0  0  0  0  0
    2.8727   -0.5019   -1.3643 H   0  0  0  0  0  0  0  0  0  0  0  0
    2.8381    1.9588   -1.3600 H   0  0  0  0  0  0  0  0  0  0  0  0
   -0.4860    1.9093    1.3247 H   0  0  0  0  0  0  0  0  0  0  0  0
   -0.4508   -0.5514    1.3247 H   0  0  0  0  0  0  0  0  0  0  0  0
    0.2487    5.1626    0.6929 H   0  0  0  0  0  0  0  0  0  0  0  0
   -0.8350    3.7734    0.4406 H   0  0  0  0  0  0  0  0  0  0  0  0
    0.2844    3.7890    1.8244 H   0  0  0  0  0  0  0  0  0  0  0  0
   -0.0532   -8.0596   -2.5702 H   0  0  0  0  0  0  0  0  0  0  0  0
   -0.9957   -8.8451   -0.4383 H   0  0  0  0  0  0  0  0  0  0  0  0
    0.1808   -8.4001    1.6755 H   0  0  0  0  0  0  0  0  0  0  0  0
   16.5551   -1.8132   -1.8124 N   0  3  0  0  0  0  0  0  0  0  0  0
   16.6985   -2.4037   -2.6401 H   0  0  0  0  0  0  0  0  0  0  0  0
   14.2222   -3.1026   -0.7954 N   0  3  0  0  0  0  0  0  0  0  0  0
   14.0789   -2.5122    0.0323 H   0  0  0  0  0  0  0  0  0  0  0  0
  1 40  1  0  0  0  0
  1 41  1  0  0  0  0
  1 42  1  0  0  0  0
  1 72  1  0  0  0  0
  2  3  1  0  0  0  0
  2 43  1  0  0  0  0
  2 44  1  0  0  0  0
  2 72  1  0  0  0  0
  3 45  1  0  0  0  0
  3 46  1  0  0  0  0
  3 74  1  0  0  0  0
  4  5  1  0  0  0  0
  4 47  1  0  0  0  0
  4 48  1  0  0  0  0
  4 74  1  0  0  0  0
  5 49  1  0  0  0  0
  5 50  1  0  0  0  0
  5 72  1  0  0  0  0
  6  7  1  0  0  0  0
  6 51  1  0  0  0  0
  6 52  1  0  0  0  0
  6 74  1  0  0  0  0
  7  8  1  0  0  0  0
  7 53  1  0  0  0  0
  7 54  1  0  0  0  0
  8  9  1  0  0  0  0
  8 55  1  0  0  0  0
  8 56  1  0  0  0  0
  9 10  1  0  0  0  0
  9 57  1  0  0  0  0
 10 19  2  0  0  0  0
 10 11  1  0  0  0  0
 11 12  2  0  0  0  0
 12 13  1  0  0  0  0
 12 58  1  0  0  0  0
 13 18  2  0  0  0  0
 13 14  1  0  0  0  0
 14 15  2  0  0  0  0
 14 59  1  0  0  0  0
 15 16  1  0  0  0  0
 15 32  1  0  0  0  0
 16 17  2  0  0  0  0
 16 20  1  0  0  0  0
 17 18  1  0  0  0  0
 18 19  1  0  0  0  0
 20 21  1  0  0  0  0
 20 60  1  0  0  0  0
 21 22  2  0  0  0  0
 21 23  1  0  0  0  0
 23 24  1  0  0  0  0
 23 61  1  0  0  0  0
 24 29  2  0  0  0  0
 24 25  1  0  0  0  0
 25 26  2  0  0  0  0
 25 62  1  0  0  0  0
 26 27  1  0  0  0  0
 26 63  1  0  0  0  0
 27 28  2  0  0  0  0
 27 30  1  0  0  0  0
 28 29  1  0  0  0  0
 28 64  1  0  0  0  0
 29 65  1  0  0  0  0
 30 31  1  0  0  0  0
 31 66  1  0  0  0  0
 31 67  1  0  0  0  0
 31 68  1  0  0  0  0
 32 37  2  0  0  0  0
 32 33  1  0  0  0  0
 33 34  2  0  0  0  0
 33 39  1  0  0  0  0
 34 35  1  0  0  0  0
 34 69  1  0  0  0  0
 35 36  2  0  0  0  0
 35 70  1  0  0  0  0
 36 37  1  0  0  0  0
 36 71  1  0  0  0  0
 37 38  1  0  0  0  0
 72 73  1  0  0  0  0
 74 75  1  0  0  0  0
M  CHG  2  72   1  74   1
M  END
$$$$
