ZINC04617788
  -OEChem-08230709403D

 53 55  0     1  0  0  0  0  0999 V2000
    2.1577    5.6966    0.3942 C   0  0  0  0  0  0  0  0  0  0  0  0
    2.2603    4.3225    0.4909 C   0  0  0  0  0  0  0  0  0  0  0  0
    3.3215    3.6622   -0.1150 C   0  0  0  0  0  0  0  0  0  0  0  0
    4.2797    4.3869   -0.8123 C   0  0  0  0  0  0  0  0  0  0  0  0
    4.1688    5.7608   -0.9094 C   0  0  0  0  0  0  0  0  0  0  0  0
    3.1100    6.4152   -0.3043 C   0  0  0  0  0  0  0  0  0  0  0  0
    5.4687    6.7483   -1.8638 Br  0  0  0  0  0  0  0  0  0  0  0  0
    3.4281    2.2717   -0.0184 N   0  0  0  0  0  0  0  0  0  0  0  0
    2.2914    1.4919   -0.0144 C   0  0  0  0  0  0  0  0  0  0  0  0
    2.3671    0.0967    0.2035 C   0  0  0  0  0  0  0  0  0  0  0  0
    3.5751   -0.5691    0.4250 C   0  0  0  0  0  0  0  0  0  0  0  0
    2.4717   -2.6006    0.6204 C   0  0  0  0  0  0  0  0  0  0  0  0
    1.2299   -2.0296    0.4098 C   0  0  0  0  0  0  0  0  0  0  0  0
    1.1580   -0.6486    0.1945 C   0  0  0  0  0  0  0  0  0  0  0  0
    0.0031   -0.0057   -0.0186 N   0  0  0  0  0  0  0  0  0  0  0  0
   -0.0056    1.2929   -0.2155 C   0  0  0  0  0  0  0  0  0  0  0  0
    1.0937    2.0290   -0.2163 N   0  0  0  0  0  0  0  0  0  0  0  0
    2.5608   -3.9699    0.8351 N   0  0  0  0  0  0  0  0  0  0  0  0
    1.3480   -4.7916    0.8367 C   0  0  0  0  0  0  0  0  0  0  0  0
    1.7221   -6.2527    1.0938 C   0  0  1  0  0  0  0  0  0  0  0  0
    2.2186   -6.3358    2.0606 H   0  0  0  0  0  0  0  0  0  0  0  0
    0.4554   -7.1108    1.0955 C   0  0  2  0  0  0  0  0  0  0  0  0
   -0.1772   -6.8231    1.9351 H   0  0  0  0  0  0  0  0  0  0  0  0
    0.8390   -8.5860    1.2279 C   0  0  1  0  0  0  0  0  0  0  0  0
    1.3030   -8.7549    2.1996 H   0  0  0  0  0  0  0  0  0  0  0  0
   -0.4160   -9.4524    1.1045 C   0  0  1  0  0  0  0  0  0  0  0  0
   -0.8800   -9.2834    0.1328 H   0  0  0  0  0  0  0  0  0  0  0  0
   -0.0325  -10.9276    1.2370 C   0  0  0  0  0  0  0  0  0  0  0  0
   -1.1839  -11.7417    1.0062 O   0  0  0  0  0  0  0  0  0  0  0  0
   -1.3381   -9.1052    2.1395 O   0  0  0  0  0  0  0  0  0  0  0  0
    1.7611   -8.9332    0.1929 O   0  0  0  0  0  0  0  0  0  0  0  0
   -0.2564   -6.9117   -0.1275 O   0  0  0  0  0  0  0  0  0  0  0  0
    2.6038   -6.7068    0.0650 O   0  0  0  0  0  0  0  0  0  0  0  0
    1.3327    6.2103    0.8653 H   0  0  0  0  0  0  0  0  0  0  0  0
    1.5159    3.7620    1.0368 H   0  0  0  0  0  0  0  0  0  0  0  0
    5.1084    3.8769   -1.2807 H   0  0  0  0  0  0  0  0  0  0  0  0
    3.0277    7.4896   -0.3778 H   0  0  0  0  0  0  0  0  0  0  0  0
    4.3020    1.8556    0.0458 H   0  0  0  0  0  0  0  0  0  0  0  0
    4.5026   -0.0158    0.4344 H   0  0  0  0  0  0  0  0  0  0  0  0
    0.3360   -2.6356    0.4110 H   0  0  0  0  0  0  0  0  0  0  0  0
   -0.9530    1.7814   -0.3892 H   0  0  0  0  0  0  0  0  0  0  0  0
    3.4261   -4.3821    0.9840 H   0  0  0  0  0  0  0  0  0  0  0  0
    0.6755   -4.4452    1.6214 H   0  0  0  0  0  0  0  0  0  0  0  0
    0.8515   -4.7084   -0.1301 H   0  0  0  0  0  0  0  0  0  0  0  0
    0.7369  -11.1702    0.5040 H   0  0  0  0  0  0  0  0  0  0  0  0
    0.3498  -11.1149    2.2404 H   0  0  0  0  0  0  0  0  0  0  0  0
   -1.0143  -12.6913    1.0742 H   0  0  0  0  0  0  0  0  0  0  0  0
   -0.9915   -9.2307    3.0335 H   0  0  0  0  0  0  0  0  0  0  0  0
    1.4145   -8.8077   -0.7010 H   0  0  0  0  0  0  0  0  0  0  0  0
    0.2471   -7.1477   -0.9186 H   0  0  0  0  0  0  0  0  0  0  0  0
    2.2270   -6.6610   -0.8244 H   0  0  0  0  0  0  0  0  0  0  0  0
    3.6583   -1.9077    0.6351 N   0  3  0  0  0  0  0  0  0  0  0  0
    4.5576   -2.3762    0.7959 H   0  0  0  0  0  0  0  0  0  0  0  0
  1  6  2  0  0  0  0
  1  2  1  0  0  0  0
  1 34  1  0  0  0  0
  2  3  2  0  0  0  0
  2 35  1  0  0  0  0
  3  4  1  0  0  0  0
  3  8  1  0  0  0  0
  4  5  2  0  0  0  0
  4 36  1  0  0  0  0
  5  6  1  0  0  0  0
  5  7  1  0  0  0  0
  6 37  1  0  0  0  0
  8  9  1  0  0  0  0
  8 38  1  0  0  0  0
  9 17  2  0  0  0  0
  9 10  1  0  0  0  0
 10 14  2  0  0  0  0
 10 11  1  0  0  0  0
 11 39  1  0  0  0  0
 11 52  2  0  0  0  0
 12 13  2  0  0  0  0
 12 18  1  0  0  0  0
 12 52  1  0  0  0  0
 13 14  1  0  0  0  0
 13 40  1  0  0  0  0
 14 15  1  0  0  0  0
 15 16  2  0  0  0  0
 16 17  1  0  0  0  0
 16 41  1  0  0  0  0
 18 19  1  0  0  0  0
 18 42  1  0  0  0  0
 19 20  1  0  0  0  0
 19 43  1  0  0  0  0
 19 44  1  0  0  0  0
 20 21  1  0  0  0  0
 20 22  1  0  0  0  0
 20 33  1  0  0  0  0
 22 23  1  0  0  0  0
 22 24  1  0  0  0  0
 22 32  1  0  0  0  0
 24 25  1  0  0  0  0
 24 26  1  0  0  0  0
 24 31  1  0  0  0  0
 26 27  1  0  0  0  0
 26 28  1  0  0  0  0
 26 30  1  0  0  0  0
 28 29  1  0  0  0  0
 28 45  1  0  0  0  0
 28 46  1  0  0  0  0
 29 47  1  0  0  0  0
 30 48  1  0  0  0  0
 31 49  1  0  0  0  0
 32 50  1  0  0  0  0
 33 51  1  0  0  0  0
 52 53  1  0  0  0  0
M  CHG  1  52   1
M  END
$$$$
