ZINC03815092
  -OEChem-08230709403D

 56 58  0     0  0  0  0  0  0999 V2000
    4.9266    3.3568   -0.9348 C   0  0  0  0  0  0  0  0  0  0  0  0
    4.6377    2.0281   -0.6920 C   0  0  0  0  0  0  0  0  0  0  0  0
    5.3707    1.0323   -1.3248 C   0  0  0  0  0  0  0  0  0  0  0  0
    6.3962    1.3764   -2.1964 C   0  0  0  0  0  0  0  0  0  0  0  0
    6.6774    2.7073   -2.4384 C   0  0  0  0  0  0  0  0  0  0  0  0
    5.9445    3.6967   -1.8064 C   0  0  0  0  0  0  0  0  0  0  0  0
    8.0692    3.1775   -3.6292 Br  0  0  0  0  0  0  0  0  0  0  0  0
    5.0809   -0.3132   -1.0806 N   0  0  0  0  0  0  0  0  0  0  0  0
    3.7805   -0.7069   -0.8479 C   0  0  0  0  0  0  0  0  0  0  0  0
    3.4774   -2.0407   -0.4889 C   0  0  0  0  0  0  0  0  0  0  0  0
    4.4570   -3.0268   -0.3488 C   0  0  0  0  0  0  0  0  0  0  0  0
    2.8513   -4.6068    0.2061 C   0  0  0  0  0  0  0  0  0  0  0  0
    1.8139   -3.6996    0.0920 C   0  0  0  0  0  0  0  0  0  0  0  0
    2.1168   -2.3803   -0.2633 C   0  0  0  0  0  0  0  0  0  0  0  0
    1.1819   -1.4315   -0.3988 N   0  0  0  0  0  0  0  0  0  0  0  0
    1.5232   -0.2086   -0.7350 C   0  0  0  0  0  0  0  0  0  0  0  0
    2.7760    0.1552   -0.9553 N   0  0  0  0  0  0  0  0  0  0  0  0
    2.5680   -5.9202    0.5579 N   0  0  0  0  0  0  0  0  0  0  0  0
    1.1832   -6.3304    0.8033 C   0  0  0  0  0  0  0  0  0  0  0  0
    1.1486   -7.8152    1.1711 C   0  0  0  0  0  0  0  0  0  0  0  0
   -0.2976   -8.2436    1.4273 C   0  0  0  0  0  0  0  0  0  0  0  0
    0.0928   -9.8358    3.2092 C   0  0  0  0  0  0  0  0  0  0  0  0
    0.2894  -11.3250    3.4999 C   0  0  0  0  0  0  0  0  0  0  0  0
    1.3729  -11.8249    2.7135 O   0  0  0  0  0  0  0  0  0  0  0  0
   -1.6588  -10.2397    1.5870 C   0  0  0  0  0  0  0  0  0  0  0  0
   -1.8527  -10.5060    0.0929 C   0  0  0  0  0  0  0  0  0  0  0  0
   -0.9061  -11.4835   -0.3435 O   0  0  0  0  0  0  0  0  0  0  0  0
    4.3567    4.1312   -0.4429 H   0  0  0  0  0  0  0  0  0  0  0  0
    3.8423    1.7636   -0.0110 H   0  0  0  0  0  0  0  0  0  0  0  0
    6.9707    0.6045   -2.6868 H   0  0  0  0  0  0  0  0  0  0  0  0
    6.1685    4.7364   -1.9941 H   0  0  0  0  0  0  0  0  0  0  0  0
    5.7948   -0.9698   -1.0749 H   0  0  0  0  0  0  0  0  0  0  0  0
    5.4958   -2.7835   -0.5167 H   0  0  0  0  0  0  0  0  0  0  0  0
    0.7930   -4.0025    0.2726 H   0  0  0  0  0  0  0  0  0  0  0  0
    0.7452    0.5330   -0.8407 H   0  0  0  0  0  0  0  0  0  0  0  0
    3.2871   -6.5659    0.6412 H   0  0  0  0  0  0  0  0  0  0  0  0
    0.7702   -5.7432    1.6235 H   0  0  0  0  0  0  0  0  0  0  0  0
    0.5905   -6.1651   -0.0964 H   0  0  0  0  0  0  0  0  0  0  0  0
    1.5616   -8.4024    0.3509 H   0  0  0  0  0  0  0  0  0  0  0  0
    1.7414   -7.9805    2.0708 H   0  0  0  0  0  0  0  0  0  0  0  0
   -0.7185   -7.6396    2.2312 H   0  0  0  0  0  0  0  0  0  0  0  0
   -0.8849   -8.1011    0.5202 H   0  0  0  0  0  0  0  0  0  0  0  0
    1.0310   -9.3062    3.3753 H   0  0  0  0  0  0  0  0  0  0  0  0
   -0.6734   -9.4342    3.8723 H   0  0  0  0  0  0  0  0  0  0  0  0
    0.5146  -11.4621    4.5575 H   0  0  0  0  0  0  0  0  0  0  0  0
   -0.6221  -11.8676    3.2492 H   0  0  0  0  0  0  0  0  0  0  0  0
    1.5547  -12.7652    2.8470 H   0  0  0  0  0  0  0  0  0  0  0  0
   -1.7456  -11.1765    2.1373 H   0  0  0  0  0  0  0  0  0  0  0  0
   -2.4216   -9.5426    1.9338 H   0  0  0  0  0  0  0  0  0  0  0  0
   -2.8632  -10.8752   -0.0822 H   0  0  0  0  0  0  0  0  0  0  0  0
   -1.7024   -9.5808   -0.4635 H   0  0  0  0  0  0  0  0  0  0  0  0
   -0.9712  -11.7019   -1.2832 H   0  0  0  0  0  0  0  0  0  0  0  0
    4.1763   -4.3096   -0.0048 N   0  3  0  0  0  0  0  0  0  0  0  0
    4.9129   -5.0182    0.0925 H   0  0  0  0  0  0  0  0  0  0  0  0
   -0.3089   -9.6749    1.7959 N   0  3  0  0  0  0  0  0  0  0  0  0
    0.3589  -10.1781    1.2000 H   0  0  0  0  0  0  0  0  0  0  0  0
  1  6  2  0  0  0  0
  1  2  1  0  0  0  0
  1 28  1  0  0  0  0
  2  3  2  0  0  0  0
  2 29  1  0  0  0  0
  3  4  1  0  0  0  0
  3  8  1  0  0  0  0
  4  5  2  0  0  0  0
  4 30  1  0  0  0  0
  5  6  1  0  0  0  0
  5  7  1  0  0  0  0
  6 31  1  0  0  0  0
  8  9  1  0  0  0  0
  8 32  1  0  0  0  0
  9 17  2  0  0  0  0
  9 10  1  0  0  0  0
 10 14  2  0  0  0  0
 10 11  1  0  0  0  0
 11 33  1  0  0  0  0
 11 53  2  0  0  0  0
 12 13  2  0  0  0  0
 12 18  1  0  0  0  0
 12 53  1  0  0  0  0
 13 14  1  0  0  0  0
 13 34  1  0  0  0  0
 14 15  1  0  0  0  0
 15 16  2  0  0  0  0
 16 17  1  0  0  0  0
 16 35  1  0  0  0  0
 18 19  1  0  0  0  0
 18 36  1  0  0  0  0
 19 20  1  0  0  0  0
 19 37  1  0  0  0  0
 19 38  1  0  0  0  0
 20 21  1  0  0  0  0
 20 39  1  0  0  0  0
 20 40  1  0  0  0  0
 21 41  1  0  0  0  0
 21 42  1  0  0  0  0
 21 55  1  0  0  0  0
 22 23  1  0  0  0  0
 22 43  1  0  0  0  0
 22 44  1  0  0  0  0
 22 55  1  0  0  0  0
 23 24  1  0  0  0  0
 23 45  1  0  0  0  0
 23 46  1  0  0  0  0
 24 47  1  0  0  0  0
 25 26  1  0  0  0  0
 25 48  1  0  0  0  0
 25 49  1  0  0  0  0
 25 55  1  0  0  0  0
 26 27  1  0  0  0  0
 26 50  1  0  0  0  0
 26 51  1  0  0  0  0
 27 52  1  0  0  0  0
 53 54  1  0  0  0  0
 55 56  1  0  0  0  0
M  CHG  2  53   1  55   1
M  END
$$$$
