ZINC00006094
  -OEChem-08230709403D

 40 43  0     0  0  0  0  0  0999 V2000
    4.2203    1.3088   -0.6642 C   0  0  0  0  0  0  0  0  0  0  0  0
    3.7972    0.8446    0.5679 C   0  0  0  0  0  0  0  0  0  0  0  0
    2.4621    0.5622    0.7798 C   0  0  0  0  0  0  0  0  0  0  0  0
    1.5437    0.7449   -0.2466 C   0  0  0  0  0  0  0  0  0  0  0  0
    1.9731    1.2064   -1.4848 C   0  0  0  0  0  0  0  0  0  0  0  0
    3.3089    1.4914   -1.6882 C   0  0  0  0  0  0  0  0  0  0  0  0
    0.1926    0.4597   -0.0360 N   0  0  0  0  0  0  0  0  0  0  0  0
   -0.7870    1.3143   -0.5399 C   0  0  0  0  0  0  0  0  0  0  0  0
   -0.4202    2.5277   -1.1121 C   0  0  0  0  0  0  0  0  0  0  0  0
   -1.3961    3.3752   -1.6127 C   0  0  0  0  0  0  0  0  0  0  0  0
   -2.7574    3.0053   -1.5405 C   0  0  0  0  0  0  0  0  0  0  0  0
   -3.1171    1.7947   -0.9692 C   0  0  0  0  0  0  0  0  0  0  0  0
   -2.1332    0.9460   -0.4733 C   0  0  0  0  0  0  0  0  0  0  0  0
   -2.4918   -0.2749    0.0967 N   0  0  0  0  0  0  0  0  0  0  0  0
   -2.4519   -0.4366    1.4835 C   0  0  0  0  0  0  0  0  0  0  0  0
   -2.1786    0.6510    2.3038 C   0  0  0  0  0  0  0  0  0  0  0  0
   -2.1442    0.4883    3.6747 C   0  0  0  0  0  0  0  0  0  0  0  0
   -2.3718   -0.7573    4.2308 C   0  0  0  0  0  0  0  0  0  0  0  0
   -2.6389   -1.8431    3.4170 C   0  0  0  0  0  0  0  0  0  0  0  0
   -2.6796   -1.6867    2.0456 C   0  0  0  0  0  0  0  0  0  0  0  0
   -3.5101    4.1164   -2.1537 C   0  0  0  0  0  0  0  0  0  0  0  0
   -4.7173    4.1710   -2.2792 O   0  0  0  0  0  0  0  0  0  0  0  0
   -2.6363    5.0591   -2.5500 N   0  0  0  0  0  0  0  0  0  0  0  0
   -1.3720    4.6976   -2.2670 C   0  0  0  0  0  0  0  0  0  0  0  0
   -0.3766    5.3503   -2.5102 O   0  0  0  0  0  0  0  0  0  0  0  0
    5.2650    1.5289   -0.8272 H   0  0  0  0  0  0  0  0  0  0  0  0
    4.5116    0.7032    1.3654 H   0  0  0  0  0  0  0  0  0  0  0  0
    2.1324    0.1993    1.7421 H   0  0  0  0  0  0  0  0  0  0  0  0
    1.2625    1.3453   -2.2861 H   0  0  0  0  0  0  0  0  0  0  0  0
    3.6429    1.8537   -2.6492 H   0  0  0  0  0  0  0  0  0  0  0  0
   -0.0641   -0.3350    0.4574 H   0  0  0  0  0  0  0  0  0  0  0  0
    0.6212    2.8087   -1.1659 H   0  0  0  0  0  0  0  0  0  0  0  0
   -4.1573    1.5097   -0.9129 H   0  0  0  0  0  0  0  0  0  0  0  0
   -2.7690   -1.0118   -0.4697 H   0  0  0  0  0  0  0  0  0  0  0  0
   -1.9968    1.6232    1.8700 H   0  0  0  0  0  0  0  0  0  0  0  0
   -1.9356    1.3341    4.3132 H   0  0  0  0  0  0  0  0  0  0  0  0
   -2.3405   -0.8824    5.3031 H   0  0  0  0  0  0  0  0  0  0  0  0
   -2.8161   -2.8144    3.8546 H   0  0  0  0  0  0  0  0  0  0  0  0
   -2.8879   -2.5351    1.4106 H   0  0  0  0  0  0  0  0  0  0  0  0
   -2.8852    5.8904   -2.9835 H   0  0  0  0  0  0  0  0  0  0  0  0
  1  6  2  0  0  0  0
  1  2  1  0  0  0  0
  1 26  1  0  0  0  0
  2  3  2  0  0  0  0
  2 27  1  0  0  0  0
  3  4  1  0  0  0  0
  3 28  1  0  0  0  0
  4  5  2  0  0  0  0
  4  7  1  0  0  0  0
  5  6  1  0  0  0  0
  5 29  1  0  0  0  0
  6 30  1  0  0  0  0
  7  8  1  0  0  0  0
  7 31  1  0  0  0  0
  8 13  2  0  0  0  0
  8  9  1  0  0  0  0
  9 10  2  0  0  0  0
  9 32  1  0  0  0  0
 10 24  1  0  0  0  0
 10 11  1  0  0  0  0
 11 12  2  0  0  0  0
 11 21  1  0  0  0  0
 12 13  1  0  0  0  0
 12 33  1  0  0  0  0
 13 14  1  0  0  0  0
 14 15  1  0  0  0  0
 14 34  1  0  0  0  0
 15 20  2  0  0  0  0
 15 16  1  0  0  0  0
 16 17  2  0  0  0  0
 16 35  1  0  0  0  0
 17 18  1  0  0  0  0
 17 36  1  0  0  0  0
 18 19  2  0  0  0  0
 18 37  1  0  0  0  0
 19 20  1  0  0  0  0
 19 38  1  0  0  0  0
 20 39  1  0  0  0  0
 21 22  2  0  0  0  0
 21 23  1  0  0  0  0
 23 24  1  0  0  0  0
 23 40  1  0  0  0  0
 24 25  2  0  0  0  0
M  END
$$$$
