ZINC03815161
  -OEChem-08230709403D

 44 47  0     0  0  0  0  0  0999 V2000
   -7.8178    4.4957   -0.5856 C   0  0  0  0  0  0  0  0  0  0  0  0
   -7.1136    4.5268    0.6574 O   0  0  0  0  0  0  0  0  0  0  0  0
   -5.7851    4.8090    0.6070 C   0  0  0  0  0  0  0  0  0  0  0  0
   -5.0399    4.8555    1.7762 C   0  0  0  0  0  0  0  0  0  0  0  0
   -3.6895    5.1422    1.7222 C   0  0  0  0  0  0  0  0  0  0  0  0
   -3.0808    5.3825    0.5043 C   0  0  0  0  0  0  0  0  0  0  0  0
   -3.8225    5.3422   -0.6619 C   0  0  0  0  0  0  0  0  0  0  0  0
   -5.1719    5.0504   -0.6138 C   0  0  0  0  0  0  0  0  0  0  0  0
   -1.6076    5.6949    0.4484 C   0  0  0  0  0  0  0  0  0  0  0  0
   -0.8494    4.4496    0.3049 N   0  0  0  0  0  0  0  0  0  0  0  0
    0.5447    4.4854    0.2308 C   0  0  0  0  0  0  0  0  0  0  0  0
    1.4318    3.3351    0.0880 C   0  0  0  0  0  0  0  0  0  0  0  0
    2.7450    3.8455    0.0617 C   0  0  0  0  0  0  0  0  0  0  0  0
    2.6441    5.1980    0.1836 N   0  0  0  0  0  0  0  0  0  0  0  0
    3.4142    5.8357    0.2038 H   0  0  0  0  0  0  0  0  0  0  0  0
    1.2949    5.5561    0.2762 N   0  0  0  0  0  0  0  0  0  0  0  0
    3.7597    2.9914   -0.0699 N   0  0  0  0  0  0  0  0  0  0  0  0
    3.5400    1.6985   -0.1681 C   0  0  0  0  0  0  0  0  0  0  0  0
    2.3267    1.1765   -0.1432 N   0  0  0  0  0  0  0  0  0  0  0  0
    1.2499    1.9461   -0.0153 C   0  0  0  0  0  0  0  0  0  0  0  0
   -0.0169    1.3937    0.0097 N   0  0  0  0  0  0  0  0  0  0  0  0
   -0.1868    0.0244   -0.2149 C   0  0  0  0  0  0  0  0  0  0  0  0
    0.6338   -0.6400   -1.1178 C   0  0  0  0  0  0  0  0  0  0  0  0
    0.4642   -1.9927   -1.3375 C   0  0  0  0  0  0  0  0  0  0  0  0
   -0.5215   -2.6868   -0.6600 C   0  0  0  0  0  0  0  0  0  0  0  0
   -1.3409   -2.0286    0.2402 C   0  0  0  0  0  0  0  0  0  0  0  0
   -1.1725   -0.6755    0.4683 C   0  0  0  0  0  0  0  0  0  0  0  0
   -2.5766   -2.9041    1.0890 Cl  0  0  0  0  0  0  0  0  0  0  0  0
   -8.8662    4.2597   -0.4034 H   0  0  0  0  0  0  0  0  0  0  0  0
   -7.7434    5.4693   -1.0699 H   0  0  0  0  0  0  0  0  0  0  0  0
   -7.3810    3.7342   -1.2318 H   0  0  0  0  0  0  0  0  0  0  0  0
   -5.5150    4.6683    2.7278 H   0  0  0  0  0  0  0  0  0  0  0  0
   -3.1089    5.1782    2.6321 H   0  0  0  0  0  0  0  0  0  0  0  0
   -3.3456    5.5349   -1.6115 H   0  0  0  0  0  0  0  0  0  0  0  0
   -5.7500    5.0147   -1.5254 H   0  0  0  0  0  0  0  0  0  0  0  0
   -1.3079    6.1989    1.3672 H   0  0  0  0  0  0  0  0  0  0  0  0
   -1.4058    6.3434   -0.4042 H   0  0  0  0  0  0  0  0  0  0  0  0
   -1.3157    3.6001    0.2614 H   0  0  0  0  0  0  0  0  0  0  0  0
    4.3865    1.0362   -0.2740 H   0  0  0  0  0  0  0  0  0  0  0  0
   -0.7883    1.9568    0.1791 H   0  0  0  0  0  0  0  0  0  0  0  0
    1.4037   -0.0988   -1.6478 H   0  0  0  0  0  0  0  0  0  0  0  0
    1.1023   -2.5093   -2.0391 H   0  0  0  0  0  0  0  0  0  0  0  0
   -0.6518   -3.7448   -0.8334 H   0  0  0  0  0  0  0  0  0  0  0  0
   -1.8092   -0.1628    1.1741 H   0  0  0  0  0  0  0  0  0  0  0  0
  1  2  1  0  0  0  0
  1 29  1  0  0  0  0
  1 30  1  0  0  0  0
  1 31  1  0  0  0  0
  2  3  1  0  0  0  0
  3  8  2  0  0  0  0
  3  4  1  0  0  0  0
  4  5  2  0  0  0  0
  4 32  1  0  0  0  0
  5  6  1  0  0  0  0
  5 33  1  0  0  0  0
  6  7  2  0  0  0  0
  6  9  1  0  0  0  0
  7  8  1  0  0  0  0
  7 34  1  0  0  0  0
  8 35  1  0  0  0  0
  9 10  1  0  0  0  0
  9 36  1  0  0  0  0
  9 37  1  0  0  0  0
 10 11  1  0  0  0  0
 10 38  1  0  0  0  0
 11 16  2  0  0  0  0
 11 12  1  0  0  0  0
 12 20  2  0  0  0  0
 12 13  1  0  0  0  0
 13 14  1  0  0  0  0
 13 17  2  0  0  0  0
 14 15  1  0  0  0  0
 14 16  1  0  0  0  0
 17 18  1  0  0  0  0
 18 19  2  0  0  0  0
 18 39  1  0  0  0  0
 19 20  1  0  0  0  0
 20 21  1  0  0  0  0
 21 22  1  0  0  0  0
 21 40  1  0  0  0  0
 22 27  2  0  0  0  0
 22 23  1  0  0  0  0
 23 24  2  0  0  0  0
 23 41  1  0  0  0  0
 24 25  1  0  0  0  0
 24 42  1  0  0  0  0
 25 26  2  0  0  0  0
 25 43  1  0  0  0  0
 26 27  1  0  0  0  0
 26 28  1  0  0  0  0
 27 44  1  0  0  0  0
M  END
$$$$
