ZINC03815160
  -OEChem-08230709403D

 40 43  0     0  0  0  0  0  0999 V2000
   -5.7897    4.7992    0.6069 C   0  0  0  0  0  0  0  0  0  0  0  0
   -5.0484    4.8470    1.7727 C   0  0  0  0  0  0  0  0  0  0  0  0
   -3.6975    5.1356    1.7215 C   0  0  0  0  0  0  0  0  0  0  0  0
   -3.0880    5.3769    0.5044 C   0  0  0  0  0  0  0  0  0  0  0  0
   -3.8305    5.3347   -0.6608 C   0  0  0  0  0  0  0  0  0  0  0  0
   -5.1802    5.0405   -0.6101 C   0  0  0  0  0  0  0  0  0  0  0  0
   -1.6154    5.6920    0.4486 C   0  0  0  0  0  0  0  0  0  0  0  0
   -0.8549    4.4480    0.3055 N   0  0  0  0  0  0  0  0  0  0  0  0
    0.5391    4.4864    0.2315 C   0  0  0  0  0  0  0  0  0  0  0  0
    1.4283    3.3376    0.0890 C   0  0  0  0  0  0  0  0  0  0  0  0
    2.7407    3.8503    0.0633 C   0  0  0  0  0  0  0  0  0  0  0  0
    2.6372    5.2028    0.1842 N   0  0  0  0  0  0  0  0  0  0  0  0
    3.4060    5.8420    0.2032 H   0  0  0  0  0  0  0  0  0  0  0  0
    1.2874    5.5584    0.2776 N   0  0  0  0  0  0  0  0  0  0  0  0
    3.7569    2.9981   -0.0674 N   0  0  0  0  0  0  0  0  0  0  0  0
    3.5396    1.7047   -0.1654 C   0  0  0  0  0  0  0  0  0  0  0  0
    2.3272    1.1806   -0.1413 N   0  0  0  0  0  0  0  0  0  0  0  0
    1.2489    1.9483   -0.0143 C   0  0  0  0  0  0  0  0  0  0  0  0
   -0.0169    1.3937    0.0097 N   0  0  0  0  0  0  0  0  0  0  0  0
   -0.1843    0.0241   -0.2149 C   0  0  0  0  0  0  0  0  0  0  0  0
    0.6379   -0.6388   -1.1176 C   0  0  0  0  0  0  0  0  0  0  0  0
    0.4704   -1.9917   -1.3377 C   0  0  0  0  0  0  0  0  0  0  0  0
   -0.5145   -2.6875   -0.6609 C   0  0  0  0  0  0  0  0  0  0  0  0
   -1.3354   -2.0308    0.2391 C   0  0  0  0  0  0  0  0  0  0  0  0
   -1.1689   -0.6776    0.4679 C   0  0  0  0  0  0  0  0  0  0  0  0
   -2.5701   -2.9084    1.0870 Cl  0  0  0  0  0  0  0  0  0  0  0  0
   -6.8450    4.5730    0.6469 H   0  0  0  0  0  0  0  0  0  0  0  0
   -5.5246    4.6585    2.7236 H   0  0  0  0  0  0  0  0  0  0  0  0
   -3.1183    5.1729    2.6323 H   0  0  0  0  0  0  0  0  0  0  0  0
   -3.3552    5.5275   -1.6113 H   0  0  0  0  0  0  0  0  0  0  0  0
   -5.7593    5.0028   -1.5209 H   0  0  0  0  0  0  0  0  0  0  0  0
   -1.3167    6.1967    1.3673 H   0  0  0  0  0  0  0  0  0  0  0  0
   -1.4147    6.3406   -0.4041 H   0  0  0  0  0  0  0  0  0  0  0  0
   -1.3197    3.5977    0.2621 H   0  0  0  0  0  0  0  0  0  0  0  0
    4.3873    1.0439   -0.2702 H   0  0  0  0  0  0  0  0  0  0  0  0
   -0.7894    1.9555    0.1785 H   0  0  0  0  0  0  0  0  0  0  0  0
    1.4072   -0.0963   -1.6471 H   0  0  0  0  0  0  0  0  0  0  0  0
    1.1097   -2.5071   -2.0392 H   0  0  0  0  0  0  0  0  0  0  0  0
   -0.6430   -3.7456   -0.8347 H   0  0  0  0  0  0  0  0  0  0  0  0
   -1.8064   -0.1662    1.1739 H   0  0  0  0  0  0  0  0  0  0  0  0
  1  6  2  0  0  0  0
  1  2  1  0  0  0  0
  1 27  1  0  0  0  0
  2  3  2  0  0  0  0
  2 28  1  0  0  0  0
  3  4  1  0  0  0  0
  3 29  1  0  0  0  0
  4  5  2  0  0  0  0
  4  7  1  0  0  0  0
  5  6  1  0  0  0  0
  5 30  1  0  0  0  0
  6 31  1  0  0  0  0
  7  8  1  0  0  0  0
  7 32  1  0  0  0  0
  7 33  1  0  0  0  0
  8  9  1  0  0  0  0
  8 34  1  0  0  0  0
  9 14  2  0  0  0  0
  9 10  1  0  0  0  0
 10 18  2  0  0  0  0
 10 11  1  0  0  0  0
 11 12  1  0  0  0  0
 11 15  2  0  0  0  0
 12 13  1  0  0  0  0
 12 14  1  0  0  0  0
 15 16  1  0  0  0  0
 16 17  2  0  0  0  0
 16 35  1  0  0  0  0
 17 18  1  0  0  0  0
 18 19  1  0  0  0  0
 19 20  1  0  0  0  0
 19 36  1  0  0  0  0
 20 25  2  0  0  0  0
 20 21  1  0  0  0  0
 21 22  2  0  0  0  0
 21 37  1  0  0  0  0
 22 23  1  0  0  0  0
 22 38  1  0  0  0  0
 23 24  2  0  0  0  0
 23 39  1  0  0  0  0
 24 25  1  0  0  0  0
 24 26  1  0  0  0  0
 25 40  1  0  0  0  0
M  END
$$$$
