ZINC03815233
  -OEChem-08230709403D

 46 49  0     0  0  0  0  0  0999 V2000
   -7.5442    6.1162   -2.0743 C   0  0  0  0  0  0  0  0  0  0  0  0
   -7.0868    4.3683   -3.6861 C   0  0  0  0  0  0  0  0  0  0  0  0
   -5.2939    5.2579   -2.3235 C   0  0  0  0  0  0  0  0  0  0  0  0
   -4.9060    5.6072   -0.8853 C   0  0  0  0  0  0  0  0  0  0  0  0
   -3.4779    5.9291   -0.8291 N   0  0  0  0  0  0  0  0  0  0  0  0
   -2.4669    5.0280   -0.6000 C   0  0  0  0  0  0  0  0  0  0  0  0
   -2.4492    3.6628   -0.3711 C   0  0  0  0  0  0  0  0  0  0  0  0
   -1.2330    3.0119   -0.1671 C   0  0  0  0  0  0  0  0  0  0  0  0
   -0.0191    3.7505   -0.1962 C   0  0  0  0  0  0  0  0  0  0  0  0
   -0.0394    5.1228   -0.4272 C   0  0  0  0  0  0  0  0  0  0  0  0
   -1.2577    5.7630   -0.6289 C   0  0  0  0  0  0  0  0  0  0  0  0
   -1.6317    7.1527   -0.8902 C   0  0  0  0  0  0  0  0  0  0  0  0
   -2.9269    7.2027   -0.9992 N   0  0  0  0  0  0  0  0  0  0  0  0
    1.1960    3.0481    0.0151 C   0  0  0  0  0  0  0  0  0  0  0  0
    1.1356    1.7411    0.2284 N   0  0  0  0  0  0  0  0  0  0  0  0
   -0.0204    1.0947    0.2466 C   0  0  0  0  0  0  0  0  0  0  0  0
   -1.1736    1.6864    0.0531 N   0  0  0  0  0  0  0  0  0  0  0  0
    2.4066    3.7072   -0.0015 N   0  0  0  0  0  0  0  0  0  0  0  0
    3.5984    2.9823    0.0883 C   0  0  0  0  0  0  0  0  0  0  0  0
    3.7001    1.7330   -0.5110 C   0  0  0  0  0  0  0  0  0  0  0  0
    4.8788    1.0193   -0.4212 C   0  0  0  0  0  0  0  0  0  0  0  0
    5.9579    1.5465    0.2646 C   0  0  0  0  0  0  0  0  0  0  0  0
    5.8606    2.7905    0.8624 C   0  0  0  0  0  0  0  0  0  0  0  0
    4.6851    3.5119    0.7719 C   0  0  0  0  0  0  0  0  0  0  0  0
    7.3391    3.5072    1.7983 Br  0  0  0  0  0  0  0  0  0  0  0  0
   -7.3341    6.9015   -2.8004 H   0  0  0  0  0  0  0  0  0  0  0  0
   -8.5999    5.8493   -2.1229 H   0  0  0  0  0  0  0  0  0  0  0  0
   -7.3057    6.4742   -1.0727 H   0  0  0  0  0  0  0  0  0  0  0  0
   -6.5158    3.4555   -3.8564 H   0  0  0  0  0  0  0  0  0  0  0  0
   -8.1522    4.1384   -3.7006 H   0  0  0  0  0  0  0  0  0  0  0  0
   -6.8601    5.0903   -4.4706 H   0  0  0  0  0  0  0  0  0  0  0  0
   -5.0875    6.1090   -2.9724 H   0  0  0  0  0  0  0  0  0  0  0  0
   -4.7141    4.3974   -2.6574 H   0  0  0  0  0  0  0  0  0  0  0  0
   -5.1124    4.7561   -0.2364 H   0  0  0  0  0  0  0  0  0  0  0  0
   -5.4858    6.4677   -0.5514 H   0  0  0  0  0  0  0  0  0  0  0  0
   -3.3734    3.1044   -0.3502 H   0  0  0  0  0  0  0  0  0  0  0  0
    0.8822    5.6853   -0.4499 H   0  0  0  0  0  0  0  0  0  0  0  0
   -0.9533    7.9886   -0.9772 H   0  0  0  0  0  0  0  0  0  0  0  0
   -0.0118    0.0296    0.4249 H   0  0  0  0  0  0  0  0  0  0  0  0
    2.4315    4.6741   -0.0754 H   0  0  0  0  0  0  0  0  0  0  0  0
    2.8579    1.3203   -1.0465 H   0  0  0  0  0  0  0  0  0  0  0  0
    4.9583    0.0483   -0.8873 H   0  0  0  0  0  0  0  0  0  0  0  0
    6.8786    0.9862    0.3333 H   0  0  0  0  0  0  0  0  0  0  0  0
    4.6105    4.4845    1.2353 H   0  0  0  0  0  0  0  0  0  0  0  0
   -6.7313    4.9153   -2.3598 N   0  3  0  0  0  0  0  0  0  0  0  0
   -6.9230    4.2048   -1.6438 H   0  0  0  0  0  0  0  0  0  0  0  0
  1 26  1  0  0  0  0
  1 27  1  0  0  0  0
  1 28  1  0  0  0  0
  1 45  1  0  0  0  0
  2 29  1  0  0  0  0
  2 30  1  0  0  0  0
  2 31  1  0  0  0  0
  2 45  1  0  0  0  0
  3  4  1  0  0  0  0
  3 32  1  0  0  0  0
  3 33  1  0  0  0  0
  3 45  1  0  0  0  0
  4  5  1  0  0  0  0
  4 34  1  0  0  0  0
  4 35  1  0  0  0  0
  5 13  1  0  0  0  0
  5  6  1  0  0  0  0
  6 11  2  0  0  0  0
  6  7  1  0  0  0  0
  7  8  2  0  0  0  0
  7 36  1  0  0  0  0
  8 17  1  0  0  0  0
  8  9  1  0  0  0  0
  9 10  2  0  0  0  0
  9 14  1  0  0  0  0
 10 11  1  0  0  0  0
 10 37  1  0  0  0  0
 11 12  1  0  0  0  0
 12 13  2  0  0  0  0
 12 38  1  0  0  0  0
 14 15  2  0  0  0  0
 14 18  1  0  0  0  0
 15 16  1  0  0  0  0
 16 17  2  0  0  0  0
 16 39  1  0  0  0  0
 18 19  1  0  0  0  0
 18 40  1  0  0  0  0
 19 24  2  0  0  0  0
 19 20  1  0  0  0  0
 20 21  2  0  0  0  0
 20 41  1  0  0  0  0
 21 22  1  0  0  0  0
 21 42  1  0  0  0  0
 22 23  2  0  0  0  0
 22 43  1  0  0  0  0
 23 24  1  0  0  0  0
 23 25  1  0  0  0  0
 24 44  1  0  0  0  0
 45 46  1  0  0  0  0
M  CHG  1  45   1
M  END
$$$$
