ZINC04617806
  -OEChem-08230709403D

 63 67  0     1  0  0  0  0  0999 V2000
    2.2613    5.2832    0.0089 C   0  0  0  0  0  0  0  0  0  0  0  0
    2.3323    3.8560    0.0005 O   0  0  0  0  0  0  0  0  0  0  0  0
    1.1541    3.1798    0.0082 C   0  0  0  0  0  0  0  0  0  0  0  0
   -0.0326    3.8790    0.0229 C   0  0  0  0  0  0  0  0  0  0  0  0
   -1.2453    3.1794    0.0307 C   0  0  0  0  0  0  0  0  0  0  0  0
   -1.2325    1.7626    0.0175 C   0  0  0  0  0  0  0  0  0  0  0  0
   -0.0126    1.0758    0.0080 C   0  0  0  0  0  0  0  0  0  0  0  0
    1.1590    1.7781    0.0005 C   0  0  0  0  0  0  0  0  0  0  0  0
    2.3434    1.1100   -0.0139 O   0  0  0  0  0  0  0  0  0  0  0  0
    2.2828   -0.3177   -0.0206 C   0  0  0  0  0  0  0  0  0  0  0  0
    3.7023   -0.8884   -0.0368 C   0  0  0  0  0  0  0  0  0  0  0  0
    3.6374   -2.4170   -0.0439 C   0  0  0  0  0  0  0  0  0  0  0  0
    5.6826   -2.6445   -1.3217 C   0  0  0  0  0  0  0  0  0  0  0  0
    7.1156   -3.1810   -1.2714 C   0  0  0  0  0  0  0  0  0  0  0  0
    7.0839   -4.5876   -1.0150 O   0  0  0  0  0  0  0  0  0  0  0  0
    6.4272   -4.9354    0.2069 C   0  0  0  0  0  0  0  0  0  0  0  0
    4.9872   -4.4167    0.1716 C   0  0  0  0  0  0  0  0  0  0  0  0
   -2.4741    1.0835    0.0326 C   0  0  0  0  0  0  0  0  0  0  0  0
   -3.5853    1.8078    0.0477 N   0  0  0  0  0  0  0  0  0  0  0  0
   -3.5485    3.1310    0.0541 C   0  0  0  0  0  0  0  0  0  0  0  0
   -2.4284    3.8134    0.0461 N   0  0  0  0  0  0  0  0  0  0  0  0
   -2.5274   -0.2950    0.0255 N   0  0  0  0  0  0  0  0  0  0  0  0
   -3.8234   -0.9780    0.0348 C   0  0  2  0  0  0  0  0  0  0  0  0
   -4.6932   -0.3378   -0.1124 H   0  0  0  0  0  0  0  0  0  0  0  0
   -3.9810   -2.1816    0.9661 C   0  0  0  0  0  0  0  0  0  0  0  0
   -3.8808   -2.3923   -0.5460 C   0  0  1  0  0  0  0  0  0  0  0  0
   -2.9543   -2.8144   -0.9353 H   0  0  0  0  0  0  0  0  0  0  0  0
   -5.1357   -2.7938   -1.2773 C   0  0  0  0  0  0  0  0  0  0  0  0
   -6.3508   -2.7909   -0.6181 C   0  0  0  0  0  0  0  0  0  0  0  0
   -7.5025   -3.1554   -1.2900 C   0  0  0  0  0  0  0  0  0  0  0  0
   -7.4380   -3.5309   -2.6188 C   0  0  0  0  0  0  0  0  0  0  0  0
   -6.2222   -3.5389   -3.2766 C   0  0  0  0  0  0  0  0  0  0  0  0
   -5.0710   -3.1706   -2.6057 C   0  0  0  0  0  0  0  0  0  0  0  0
    1.7215    5.6253   -0.8741 H   0  0  0  0  0  0  0  0  0  0  0  0
    1.7386    5.6157    0.9057 H   0  0  0  0  0  0  0  0  0  0  0  0
    3.2696    5.6972    0.0014 H   0  0  0  0  0  0  0  0  0  0  0  0
   -0.0275    4.9589    0.0279 H   0  0  0  0  0  0  0  0  0  0  0  0
    0.0021   -0.0041    0.0020 H   0  0  0  0  0  0  0  0  0  0  0  0
    1.7623   -0.6635    0.8726 H   0  0  0  0  0  0  0  0  0  0  0  0
    1.7457   -0.6545   -0.9073 H   0  0  0  0  0  0  0  0  0  0  0  0
    4.2227   -0.5426   -0.9299 H   0  0  0  0  0  0  0  0  0  0  0  0
    4.2394   -0.5516    0.8499 H   0  0  0  0  0  0  0  0  0  0  0  0
    3.1170   -2.7627    0.8492 H   0  0  0  0  0  0  0  0  0  0  0  0
    3.1003   -2.7537   -0.9306 H   0  0  0  0  0  0  0  0  0  0  0  0
    5.1493   -3.1081   -2.1516 H   0  0  0  0  0  0  0  0  0  0  0  0
    5.7033   -1.5635   -1.4600 H   0  0  0  0  0  0  0  0  0  0  0  0
    7.6648   -2.6781   -0.4754 H   0  0  0  0  0  0  0  0  0  0  0  0
    7.6078   -2.9960   -2.2262 H   0  0  0  0  0  0  0  0  0  0  0  0
    6.9563   -4.4836    1.0460 H   0  0  0  0  0  0  0  0  0  0  0  0
    6.4208   -6.0194    0.3210 H   0  0  0  0  0  0  0  0  0  0  0  0
    4.5003   -4.6293    1.1234 H   0  0  0  0  0  0  0  0  0  0  0  0
    4.4427   -4.9086   -0.6344 H   0  0  0  0  0  0  0  0  0  0  0  0
   -4.4826    3.6729    0.0661 H   0  0  0  0  0  0  0  0  0  0  0  0
   -1.7068   -0.8120    0.0145 H   0  0  0  0  0  0  0  0  0  0  0  0
   -3.1204   -2.4652    1.5720 H   0  0  0  0  0  0  0  0  0  0  0  0
   -4.9547   -2.3334    1.4320 H   0  0  0  0  0  0  0  0  0  0  0  0
   -6.4007   -2.5008    0.4210 H   0  0  0  0  0  0  0  0  0  0  0  0
   -8.4524   -3.1495   -0.7760 H   0  0  0  0  0  0  0  0  0  0  0  0
   -8.3375   -3.8183   -3.1430 H   0  0  0  0  0  0  0  0  0  0  0  0
   -6.1718   -3.8325   -4.3147 H   0  0  0  0  0  0  0  0  0  0  0  0
   -4.1212   -3.1768   -3.1196 H   0  0  0  0  0  0  0  0  0  0  0  0
    5.0153   -2.9543   -0.0395 N   0  3  0  0  0  0  0  0  0  0  0  0
    5.5418   -2.5164    0.7256 H   0  0  0  0  0  0  0  0  0  0  0  0
  1  2  1  0  0  0  0
  1 34  1  0  0  0  0
  1 35  1  0  0  0  0
  1 36  1  0  0  0  0
  2  3  1  0  0  0  0
  3  8  2  0  0  0  0
  3  4  1  0  0  0  0
  4  5  2  0  0  0  0
  4 37  1  0  0  0  0
  5 21  1  0  0  0  0
  5  6  1  0  0  0  0
  6  7  2  0  0  0  0
  6 18  1  0  0  0  0
  7  8  1  0  0  0  0
  7 38  1  0  0  0  0
  8  9  1  0  0  0  0
  9 10  1  0  0  0  0
 10 11  1  0  0  0  0
 10 39  1  0  0  0  0
 10 40  1  0  0  0  0
 11 12  1  0  0  0  0
 11 41  1  0  0  0  0
 11 42  1  0  0  0  0
 12 43  1  0  0  0  0
 12 44  1  0  0  0  0
 12 62  1  0  0  0  0
 13 14  1  0  0  0  0
 13 45  1  0  0  0  0
 13 46  1  0  0  0  0
 13 62  1  0  0  0  0
 14 15  1  0  0  0  0
 14 47  1  0  0  0  0
 14 48  1  0  0  0  0
 15 16  1  0  0  0  0
 16 17  1  0  0  0  0
 16 49  1  0  0  0  0
 16 50  1  0  0  0  0
 17 51  1  0  0  0  0
 17 52  1  0  0  0  0
 17 62  1  0  0  0  0
 18 19  2  0  0  0  0
 18 22  1  0  0  0  0
 19 20  1  0  0  0  0
 20 21  2  0  0  0  0
 20 53  1  0  0  0  0
 22 23  1  0  0  0  0
 22 54  1  0  0  0  0
 23 24  1  0  0  0  0
 23 26  1  0  0  0  0
 23 25  1  0  0  0  0
 25 26  1  0  0  0  0
 25 55  1  0  0  0  0
 25 56  1  0  0  0  0
 26 27  1  0  0  0  0
 26 28  1  0  0  0  0
 28 33  2  0  0  0  0
 28 29  1  0  0  0  0
 29 30  2  0  0  0  0
 29 57  1  0  0  0  0
 30 31  1  0  0  0  0
 30 58  1  0  0  0  0
 31 32  2  0  0  0  0
 31 59  1  0  0  0  0
 32 33  1  0  0  0  0
 32 60  1  0  0  0  0
 33 61  1  0  0  0  0
 62 63  1  0  0  0  0
M  CHG  1  62   1
M  END
$$$$
