ZINC03815177
  -OEChem-08230709403D

 53 55  0     0  0  0  0  0  0999 V2000
   -0.7343    6.9530    2.6860 C   0  0  0  0  0  0  0  0  0  0  0  0
   -0.3361    5.6412    2.5170 C   0  0  0  0  0  0  0  0  0  0  0  0
    0.7594    5.3469    1.7154 C   0  0  0  0  0  0  0  0  0  0  0  0
    1.4546    6.3741    1.0900 C   0  0  0  0  0  0  0  0  0  0  0  0
    1.0487    7.6840    1.2595 C   0  0  0  0  0  0  0  0  0  0  0  0
   -0.0437    7.9732    2.0587 C   0  0  0  0  0  0  0  0  0  0  0  0
    1.9903    9.0831    0.4042 Br  0  0  0  0  0  0  0  0  0  0  0  0
    1.1649    4.0203    1.5429 N   0  0  0  0  0  0  0  0  0  0  0  0
    0.2266    3.0109    1.5150 C   0  0  0  0  0  0  0  0  0  0  0  0
    0.6196    1.6538    1.4539 C   0  0  0  0  0  0  0  0  0  0  0  0
    1.9582    1.2556    1.4193 C   0  0  0  0  0  0  0  0  0  0  0  0
    1.3384   -0.9786    1.3359 C   0  0  0  0  0  0  0  0  0  0  0  0
   -0.0117   -0.6809    1.3671 C   0  0  0  0  0  0  0  0  0  0  0  0
   -0.3978    0.6630    1.4276 C   0  0  0  0  0  0  0  0  0  0  0  0
   -1.6790    1.0500    1.4611 N   0  0  0  0  0  0  0  0  0  0  0  0
   -1.9842    2.3263    1.5173 C   0  0  0  0  0  0  0  0  0  0  0  0
   -1.0726    3.2847    1.5436 N   0  0  0  0  0  0  0  0  0  0  0  0
    1.7386   -2.3072    1.2758 N   0  0  0  0  0  0  0  0  0  0  0  0
    0.7349   -3.3740    1.2462 C   0  0  0  0  0  0  0  0  0  0  0  0
    1.4361   -4.7323    1.1806 C   0  0  0  0  0  0  0  0  0  0  0  0
   -0.1446   -5.9026   -0.2316 C   0  0  0  0  0  0  0  0  0  0  0  0
   -1.3517   -6.8423   -0.2020 C   0  0  0  0  0  0  0  0  0  0  0  0
   -2.3821   -6.2689    0.6052 O   0  0  0  0  0  0  0  0  0  0  0  0
    0.9974   -7.0853    1.5459 C   0  0  0  0  0  0  0  0  0  0  0  0
    1.1147   -7.1070    3.0713 C   0  0  0  0  0  0  0  0  0  0  0  0
   -0.1892   -7.0261    3.6504 O   0  0  0  0  0  0  0  0  0  0  0  0
   -1.5861    7.1820    3.3092 H   0  0  0  0  0  0  0  0  0  0  0  0
   -0.8763    4.8449    3.0074 H   0  0  0  0  0  0  0  0  0  0  0  0
    2.3093    6.1490    0.4694 H   0  0  0  0  0  0  0  0  0  0  0  0
   -0.3570    8.9980    2.1928 H   0  0  0  0  0  0  0  0  0  0  0  0
    2.1066    3.8101    1.4429 H   0  0  0  0  0  0  0  0  0  0  0  0
    2.7428    1.9975    1.4390 H   0  0  0  0  0  0  0  0  0  0  0  0
   -0.7514   -1.4675    1.3449 H   0  0  0  0  0  0  0  0  0  0  0  0
   -3.0270    2.6063    1.5385 H   0  0  0  0  0  0  0  0  0  0  0  0
    2.6827   -2.5288    1.2535 H   0  0  0  0  0  0  0  0  0  0  0  0
    0.1243   -3.3234    2.1477 H   0  0  0  0  0  0  0  0  0  0  0  0
    0.0992   -3.2505    0.3694 H   0  0  0  0  0  0  0  0  0  0  0  0
    2.0663   -4.7733    0.2923 H   0  0  0  0  0  0  0  0  0  0  0  0
    2.0522   -4.8664    2.0697 H   0  0  0  0  0  0  0  0  0  0  0  0
   -0.4611   -4.9152   -0.5676 H   0  0  0  0  0  0  0  0  0  0  0  0
    0.6058   -6.2965   -0.9171 H   0  0  0  0  0  0  0  0  0  0  0  0
   -1.7235   -6.9883   -1.2162 H   0  0  0  0  0  0  0  0  0  0  0  0
   -1.0538   -7.8032    0.2176 H   0  0  0  0  0  0  0  0  0  0  0  0
   -3.1797   -6.8119    0.6690 H   0  0  0  0  0  0  0  0  0  0  0  0
    0.3471   -7.8970    1.2199 H   0  0  0  0  0  0  0  0  0  0  0  0
    1.9857   -7.2116    1.1037 H   0  0  0  0  0  0  0  0  0  0  0  0
    1.5950   -8.0336    3.3856 H   0  0  0  0  0  0  0  0  0  0  0  0
    1.7124   -6.2576    3.4019 H   0  0  0  0  0  0  0  0  0  0  0  0
   -0.1913   -7.0348    4.6173 H   0  0  0  0  0  0  0  0  0  0  0  0
    2.3456   -0.0441    1.3606 N   0  3  0  0  0  0  0  0  0  0  0  0
    3.3360   -0.3139    1.3359 H   0  0  0  0  0  0  0  0  0  0  0  0
    0.4083   -5.7935    1.1348 N   0  3  0  0  0  0  0  0  0  0  0  0
   -0.3502   -5.5515    1.7832 H   0  0  0  0  0  0  0  0  0  0  0  0
  1  6  2  0  0  0  0
  1  2  1  0  0  0  0
  1 27  1  0  0  0  0
  2  3  2  0  0  0  0
  2 28  1  0  0  0  0
  3  4  1  0  0  0  0
  3  8  1  0  0  0  0
  4  5  2  0  0  0  0
  4 29  1  0  0  0  0
  5  6  1  0  0  0  0
  5  7  1  0  0  0  0
  6 30  1  0  0  0  0
  8  9  1  0  0  0  0
  8 31  1  0  0  0  0
  9 17  2  0  0  0  0
  9 10  1  0  0  0  0
 10 14  2  0  0  0  0
 10 11  1  0  0  0  0
 11 32  1  0  0  0  0
 11 50  2  0  0  0  0
 12 13  2  0  0  0  0
 12 18  1  0  0  0  0
 12 50  1  0  0  0  0
 13 14  1  0  0  0  0
 13 33  1  0  0  0  0
 14 15  1  0  0  0  0
 15 16  2  0  0  0  0
 16 17  1  0  0  0  0
 16 34  1  0  0  0  0
 18 19  1  0  0  0  0
 18 35  1  0  0  0  0
 19 20  1  0  0  0  0
 19 36  1  0  0  0  0
 19 37  1  0  0  0  0
 20 38  1  0  0  0  0
 20 39  1  0  0  0  0
 20 52  1  0  0  0  0
 21 22  1  0  0  0  0
 21 40  1  0  0  0  0
 21 41  1  0  0  0  0
 21 52  1  0  0  0  0
 22 23  1  0  0  0  0
 22 42  1  0  0  0  0
 22 43  1  0  0  0  0
 23 44  1  0  0  0  0
 24 25  1  0  0  0  0
 24 45  1  0  0  0  0
 24 46  1  0  0  0  0
 24 52  1  0  0  0  0
 25 26  1  0  0  0  0
 25 47  1  0  0  0  0
 25 48  1  0  0  0  0
 26 49  1  0  0  0  0
 50 51  1  0  0  0  0
 52 53  1  0  0  0  0
M  CHG  2  50   1  52   1
M  END
$$$$
