
  ACD/Labs07171520373D

 43 46  0  0  0  0  0  0  0  0  1 V2000
   15.1824   -4.2905   -0.5756 C   0  0  0  0  0  0  0  0  0  0  0  0
   14.9674   -5.4590    0.7952 S   0  0  0  0  0  0  0  0  0  0  0  0
   14.4773   -6.6942    0.2922 O   0  0  0  0  0  0  0  0  0  0  0  0
   16.6139   -5.8285    1.3025 C   0  0  0  0  0  0  0  0  0  0  0  0
   17.2256   -5.0584    2.2759 C   0  0  0  0  0  0  0  0  0  0  0  0
   18.5182   -5.3415    2.6796 C   0  0  0  0  0  0  0  0  0  0  0  0
   19.2056   -6.3956    2.1137 C   0  0  0  0  0  0  0  0  0  0  0  0
   18.5943   -7.1765    1.1319 C   0  0  0  0  0  0  0  0  0  0  0  0
   17.2920   -6.8815    0.7247 C   0  0  0  0  0  0  0  0  0  0  0  0
   19.3249   -8.3075    0.5213 C   0  0  0  0  0  0  0  0  0  0  0  0
   20.5957   -8.6902    0.8365 N   0  0  0  0  0  0  0  0  0  0  0  0
   21.1932   -8.2633    1.5153 H   0  0  0  0  0  0  0  0  0  0  0  0
   20.9015   -9.7743    0.0449 C   0  0  0  0  0  0  0  0  0  0  0  0
   19.7800  -10.0206   -0.7303 C   0  0  0  0  0  0  0  0  0  0  0  0
   18.8514   -9.1075   -0.4072 N   0  0  0  0  0  0  0  0  0  0  0  0
   19.6324  -11.0989   -1.7358 C   0  0  0  0  0  0  0  0  0  0  0  0
   20.7255  -11.4887   -2.5090 C   0  0  0  0  0  0  0  0  0  0  0  0
   20.5843  -12.4961   -3.4408 C   0  0  0  0  0  0  0  0  0  0  0  0
   19.3563  -13.1138   -3.6158 C   0  0  0  0  0  0  0  0  0  0  0  0
   18.2660  -12.7264   -2.8536 C   0  0  0  0  0  0  0  0  0  0  0  0
   18.3985  -11.7233   -1.9159 C   0  0  0  0  0  0  0  0  0  0  0  0
   19.2217  -14.0967   -4.5329 F   0  0  0  0  0  0  0  0  0  0  0  0
   22.1693  -10.5279    0.0297 C   0  0  0  0  0  0  0  0  0  0  0  0
   22.1744  -11.9296    0.0173 C   0  0  0  0  0  0  0  0  0  0  0  0
   23.3826  -12.5928    0.0080 C   0  0  0  0  0  0  0  0  0  0  0  0
   24.5221  -11.9264    0.0007 N   0  0  0  0  0  0  0  0  0  0  0  0
   24.5630  -10.6071    0.0069 C   0  0  0  0  0  0  0  0  0  0  0  0
   23.4031   -9.8626    0.0215 C   0  0  0  0  0  0  0  0  0  0  0  0
   15.7602   -4.7640   -1.3694 H   0  0  0  0  0  0  0  0  0  0  0  0
   14.2055   -3.9994   -0.9615 H   0  0  0  0  0  0  0  0  0  0  0  0
   15.7108   -3.4060   -0.2196 H   0  0  0  0  0  0  0  0  0  0  0  0
   16.6918   -4.2324    2.7222 H   0  0  0  0  0  0  0  0  0  0  0  0
   18.9901   -4.7364    3.4395 H   0  0  0  0  0  0  0  0  0  0  0  0
   20.2144   -6.6160    2.4302 H   0  0  0  0  0  0  0  0  0  0  0  0
   16.8151   -7.4790   -0.0382 H   0  0  0  0  0  0  0  0  0  0  0  0
   21.6820  -11.0050   -2.3762 H   0  0  0  0  0  0  0  0  0  0  0  0
   21.4313  -12.8015   -4.0373 H   0  0  0  0  0  0  0  0  0  0  0  0
   17.3107  -13.2103   -2.9940 H   0  0  0  0  0  0  0  0  0  0  0  0
   17.5480  -11.4218   -1.3225 H   0  0  0  0  0  0  0  0  0  0  0  0
   21.2460  -12.4814    0.0191 H   0  0  0  0  0  0  0  0  0  0  0  0
   23.3973  -13.6727    0.0020 H   0  0  0  0  0  0  0  0  0  0  0  0
   25.5186  -10.1039    0.0002 H   0  0  0  0  0  0  0  0  0  0  0  0
   23.4442   -8.7834    0.0269 H   0  0  0  0  0  0  0  0  0  0  0  0
  1  2  1  0  0  0  0
  1 29  1  0  0  0  0
  1 30  1  0  0  0  0
  1 31  1  0  0  0  0
  2  3  2  0  0  0  0
  2  4  1  0  0  0  0
  4  9  2  0  0  0  0
  4  5  1  0  0  0  0
  5  6  2  0  0  0  0
  5 32  1  0  0  0  0
  6  7  1  0  0  0  0
  6 33  1  0  0  0  0
  7  8  2  0  0  0  0
  7 34  1  0  0  0  0
  8  9  1  0  0  0  0
  8 10  1  0  0  0  0
  9 35  1  0  0  0  0
 10 15  2  0  0  0  0
 10 11  1  0  0  0  0
 11 12  1  0  0  0  0
 11 13  1  0  0  0  0
 13 14  2  0  0  0  0
 13 23  1  0  0  0  0
 14 15  1  0  0  0  0
 14 16  1  0  0  0  0
 16 21  2  0  0  0  0
 16 17  1  0  0  0  0
 17 18  2  0  0  0  0
 17 36  1  0  0  0  0
 18 19  1  0  0  0  0
 18 37  1  0  0  0  0
 19 20  2  0  0  0  0
 19 22  1  0  0  0  0
 20 21  1  0  0  0  0
 20 38  1  0  0  0  0
 21 39  1  0  0  0  0
 23 28  2  0  0  0  0
 23 24  1  0  0  0  0
 24 25  2  0  0  0  0
 24 40  1  0  0  0  0
 25 26  1  0  0  0  0
 25 41  1  0  0  0  0
 26 27  2  0  0  0  0
 27 28  1  0  0  0  0
 27 42  1  0  0  0  0
 28 43  1  0  0  0  0
M  END
