
  ACD/Labs07171520383D

 43 46  0  0  0  0  0  0  0  0  1 V2000
   14.2228   -4.1916    0.5642 C   0  0  0  0  0  0  0  0  0  0  0  0
   14.9396   -4.3347   -1.0960 S   0  0  0  0  0  0  0  0  0  0  0  0
   14.1641   -5.2393   -1.8704 O   0  0  0  0  0  0  0  0  0  0  0  0
   16.4568   -5.1910   -0.8329 C   0  0  0  0  0  0  0  0  0  0  0  0
   17.6157   -4.4779   -0.5822 C   0  0  0  0  0  0  0  0  0  0  0  0
   18.8080   -5.1420   -0.3809 C   0  0  0  0  0  0  0  0  0  0  0  0
   18.8436   -6.5364   -0.4307 C   0  0  0  0  0  0  0  0  0  0  0  0
   17.6710   -7.2498   -0.6840 C   0  0  0  0  0  0  0  0  0  0  0  0
   16.4852   -6.5734   -0.8835 C   0  0  0  0  0  0  0  0  0  0  0  0
   20.1179   -7.2547   -0.2164 C   0  0  0  0  0  0  0  0  0  0  0  0
   21.3230   -6.6682    0.0380 N   0  0  0  0  0  0  0  0  0  0  0  0
   21.5019   -5.6871    0.1123 H   0  0  0  0  0  0  0  0  0  0  0  0
   22.2466   -7.6797    0.1732 C   0  0  0  0  0  0  0  0  0  0  0  0
   21.5553   -8.8666   -0.0076 C   0  0  0  0  0  0  0  0  0  0  0  0
   20.2689   -8.5597   -0.2351 N   0  0  0  0  0  0  0  0  0  0  0  0
   22.1317  -10.2305    0.0469 C   0  0  0  0  0  0  0  0  0  0  0  0
   21.4446  -11.2555    0.6971 C   0  0  0  0  0  0  0  0  0  0  0  0
   21.9859  -12.5237    0.7449 C   0  0  0  0  0  0  0  0  0  0  0  0
   23.2078  -12.7806    0.1491 C   0  0  0  0  0  0  0  0  0  0  0  0
   23.8947  -11.7679   -0.4983 C   0  0  0  0  0  0  0  0  0  0  0  0
   23.3602  -10.4955   -0.5566 C   0  0  0  0  0  0  0  0  0  0  0  0
   25.4274  -12.0990   -1.2432 Cl  0  0  0  0  0  0  0  0  0  0  0  0
   23.6867   -7.5297    0.4546 C   0  0  0  0  0  0  0  0  0  0  0  0
   24.3108   -8.2978    1.4473 C   0  0  0  0  0  0  0  0  0  0  0  0
   25.6599   -8.1280    1.6733 C   0  0  0  0  0  0  0  0  0  0  0  0
   26.3590   -7.2508    0.9776 N   0  0  0  0  0  0  0  0  0  0  0  0
   25.8104   -6.5038    0.0377 C   0  0  0  0  0  0  0  0  0  0  0  0
   24.4686   -6.6110   -0.2590 C   0  0  0  0  0  0  0  0  0  0  0  0
   14.9034   -3.6332    1.2069 H   0  0  0  0  0  0  0  0  0  0  0  0
   13.2684   -3.6684    0.5040 H   0  0  0  0  0  0  0  0  0  0  0  0
   14.0658   -5.1872    0.9792 H   0  0  0  0  0  0  0  0  0  0  0  0
   17.5867   -3.3990   -0.5440 H   0  0  0  0  0  0  0  0  0  0  0  0
   19.7118   -4.5842   -0.1849 H   0  0  0  0  0  0  0  0  0  0  0  0
   17.6919   -8.3288   -0.7242 H   0  0  0  0  0  0  0  0  0  0  0  0
   15.5772   -7.1242   -1.0800 H   0  0  0  0  0  0  0  0  0  0  0  0
   20.4907  -11.0566    1.1627 H   0  0  0  0  0  0  0  0  0  0  0  0
   21.4543  -13.3178    1.2482 H   0  0  0  0  0  0  0  0  0  0  0  0
   23.6272  -13.7750    0.1889 H   0  0  0  0  0  0  0  0  0  0  0  0
   23.8945   -9.7069   -1.0656 H   0  0  0  0  0  0  0  0  0  0  0  0
   23.7441   -9.0141    2.0236 H   0  0  0  0  0  0  0  0  0  0  0  0
   26.1509   -8.7179    2.4331 H   0  0  0  0  0  0  0  0  0  0  0  0
   26.4214   -5.7986   -0.5063 H   0  0  0  0  0  0  0  0  0  0  0  0
   24.0266   -5.9968   -1.0296 H   0  0  0  0  0  0  0  0  0  0  0  0
  1  2  1  0  0  0  0
  1 29  1  0  0  0  0
  1 30  1  0  0  0  0
  1 31  1  0  0  0  0
  2  3  2  0  0  0  0
  2  4  1  0  0  0  0
  4  9  2  0  0  0  0
  4  5  1  0  0  0  0
  5  6  2  0  0  0  0
  5 32  1  0  0  0  0
  6  7  1  0  0  0  0
  6 33  1  0  0  0  0
  7  8  2  0  0  0  0
  7 10  1  0  0  0  0
  8  9  1  0  0  0  0
  8 34  1  0  0  0  0
  9 35  1  0  0  0  0
 10 15  2  0  0  0  0
 10 11  1  0  0  0  0
 11 12  1  0  0  0  0
 11 13  1  0  0  0  0
 13 14  2  0  0  0  0
 13 23  1  0  0  0  0
 14 15  1  0  0  0  0
 14 16  1  0  0  0  0
 16 21  2  0  0  0  0
 16 17  1  0  0  0  0
 17 18  2  0  0  0  0
 17 36  1  0  0  0  0
 18 19  1  0  0  0  0
 18 37  1  0  0  0  0
 19 20  2  0  0  0  0
 19 38  1  0  0  0  0
 20 21  1  0  0  0  0
 20 22  1  0  0  0  0
 21 39  1  0  0  0  0
 23 28  2  0  0  0  0
 23 24  1  0  0  0  0
 24 25  2  0  0  0  0
 24 40  1  0  0  0  0
 25 26  1  0  0  0  0
 25 41  1  0  0  0  0
 26 27  2  0  0  0  0
 27 28  1  0  0  0  0
 27 42  1  0  0  0  0
 28 43  1  0  0  0  0
M  END
