
  ACD/Labs07171520383D

 38 41  0  0  0  0  0  0  0  0  1 V2000
   22.5126   -9.4960    0.7234 C   0  0  0  0  0  0  0  0  0  0  0  0
   23.8896   -9.5587    0.7008 C   0  0  0  0  0  0  0  0  0  0  0  0
   24.6150   -8.6564   -0.0615 C   0  0  0  0  0  0  0  0  0  0  0  0
   23.9616   -7.6889   -0.8089 C   0  0  0  0  0  0  0  0  0  0  0  0
   22.5848   -7.6190   -0.7984 C   0  0  0  0  0  0  0  0  0  0  0  0
   21.8477   -8.5262   -0.0322 C   0  0  0  0  0  0  0  0  0  0  0  0
   20.3750   -8.4567   -0.0162 C   0  0  0  0  0  0  0  0  0  0  0  0
   19.5078   -9.5255   -0.1690 C   0  0  0  0  0  0  0  0  0  0  0  0
   18.1988   -8.9934   -0.0855 C   0  0  0  0  0  0  0  0  0  0  0  0
   18.3277   -7.6553    0.1099 C   0  0  0  0  0  0  0  0  0  0  0  0
   19.6371   -7.3430    0.1500 O   0  0  0  0  0  0  0  0  0  0  0  0
   17.2122   -6.6971    0.2494 C   0  0  0  0  0  0  0  0  0  0  0  0
   15.8911   -7.1438    0.1777 C   0  0  0  0  0  0  0  0  0  0  0  0
   14.8540   -6.2448    0.3135 C   0  0  0  0  0  0  0  0  0  0  0  0
   15.1206   -4.9001    0.5099 C   0  0  0  0  0  0  0  0  0  0  0  0
   16.4286   -4.4501    0.5766 C   0  0  0  0  0  0  0  0  0  0  0  0
   17.4745   -5.3399    0.4476 C   0  0  0  0  0  0  0  0  0  0  0  0
   13.8096   -3.7738    0.6726 Cl  0  0  0  0  0  0  0  0  0  0  0  0
   19.8770  -10.9444   -0.3790 C   0  0  0  0  0  0  0  0  0  0  0  0
   20.7043  -11.3221   -1.4422 C   0  0  0  0  0  0  0  0  0  0  0  0
   21.0268  -12.6537   -1.5982 C   0  0  0  0  0  0  0  0  0  0  0  0
   20.5583  -13.5661   -0.7677 N   0  0  0  0  0  0  0  0  0  0  0  0
   19.7713  -13.2532    0.2444 C   0  0  0  0  0  0  0  0  0  0  0  0
   19.4032  -11.9447    0.4768 C   0  0  0  0  0  0  0  0  0  0  0  0
   25.9645   -8.7199   -0.0758 F   0  0  0  0  0  0  0  0  0  0  0  0
   21.9487  -10.1969    1.3210 H   0  0  0  0  0  0  0  0  0  0  0  0
   24.4045  -10.3100    1.2813 H   0  0  0  0  0  0  0  0  0  0  0  0
   24.5323   -6.9883   -1.4003 H   0  0  0  0  0  0  0  0  0  0  0  0
   22.0768   -6.8646   -1.3808 H   0  0  0  0  0  0  0  0  0  0  0  0
   17.2740   -9.5459   -0.1628 H   0  0  0  0  0  0  0  0  0  0  0  0
   15.6820   -8.1915    0.0201 H   0  0  0  0  0  0  0  0  0  0  0  0
   13.8318   -6.5896    0.2621 H   0  0  0  0  0  0  0  0  0  0  0  0
   16.6301   -3.4002    0.7295 H   0  0  0  0  0  0  0  0  0  0  0  0
   18.4941   -4.9877    0.4994 H   0  0  0  0  0  0  0  0  0  0  0  0
   21.0876  -10.5813   -2.1283 H   0  0  0  0  0  0  0  0  0  0  0  0
   21.6681  -12.9545   -2.4134 H   0  0  0  0  0  0  0  0  0  0  0  0
   19.4104  -14.0324    0.8993 H   0  0  0  0  0  0  0  0  0  0  0  0
   18.7591  -11.6958    1.3072 H   0  0  0  0  0  0  0  0  0  0  0  0
  1  6  2  0  0  0  0
  1  2  1  0  0  0  0
  1 26  1  0  0  0  0
  2  3  2  0  0  0  0
  2 27  1  0  0  0  0
  3  4  1  0  0  0  0
  3 25  1  0  0  0  0
  4  5  2  0  0  0  0
  4 28  1  0  0  0  0
  5  6  1  0  0  0  0
  5 29  1  0  0  0  0
  6  7  1  0  0  0  0
  7 11  1  0  0  0  0
  7  8  2  0  0  0  0
  8  9  1  0  0  0  0
  8 19  1  0  0  0  0
  9 10  2  0  0  0  0
  9 30  1  0  0  0  0
 10 11  1  0  0  0  0
 10 12  1  0  0  0  0
 12 17  2  0  0  0  0
 12 13  1  0  0  0  0
 13 14  2  0  0  0  0
 13 31  1  0  0  0  0
 14 15  1  0  0  0  0
 14 32  1  0  0  0  0
 15 16  2  0  0  0  0
 15 18  1  0  0  0  0
 16 17  1  0  0  0  0
 16 33  1  0  0  0  0
 17 34  1  0  0  0  0
 19 24  2  0  0  0  0
 19 20  1  0  0  0  0
 20 21  2  0  0  0  0
 20 35  1  0  0  0  0
 21 22  1  0  0  0  0
 21 36  1  0  0  0  0
 22 23  2  0  0  0  0
 23 24  1  0  0  0  0
 23 37  1  0  0  0  0
 24 38  1  0  0  0  0
M  END
