
  ACD/Labs07171520383D

 47 50  0  0  0  0  0  0  0  0  1 V2000
   21.9540  -14.8189    1.3583 C   0  0  0  0  0  0  0  0  0  0  0  0
   21.3322  -13.5323    1.3534 O   0  0  0  0  0  0  0  0  0  0  0  0
   21.9962  -12.5285    0.7221 C   0  0  0  0  0  0  0  0  0  0  0  0
   23.2220  -12.7786    0.1197 C   0  0  0  0  0  0  0  0  0  0  0  0
   23.9018  -11.7609   -0.5228 C   0  0  0  0  0  0  0  0  0  0  0  0
   23.3659  -10.4896   -0.5695 C   0  0  0  0  0  0  0  0  0  0  0  0
   22.1351  -10.2298    0.0325 C   0  0  0  0  0  0  0  0  0  0  0  0
   21.4529  -11.2555    0.6848 C   0  0  0  0  0  0  0  0  0  0  0  0
   21.5572   -8.8661   -0.0160 C   0  0  0  0  0  0  0  0  0  0  0  0
   22.2460   -7.6796    0.1765 C   0  0  0  0  0  0  0  0  0  0  0  0
   21.3226   -6.6682    0.0394 N   0  0  0  0  0  0  0  0  0  0  0  0
   19.5402   -9.2224   -0.4067 H   0  0  0  0  0  0  0  0  0  0  0  0
   20.1183   -7.2548   -0.2180 C   0  0  0  0  0  0  0  0  0  0  0  0
   20.2708   -8.5595   -0.2432 N   0  0  0  0  0  0  0  0  0  0  0  0
   18.8441   -6.5367   -0.4342 C   0  0  0  0  0  0  0  0  0  0  0  0
   17.6722   -7.2501   -0.6906 C   0  0  0  0  0  0  0  0  0  0  0  0
   16.4867   -6.5739   -0.8920 C   0  0  0  0  0  0  0  0  0  0  0  0
   16.4579   -5.1916   -0.8402 C   0  0  0  0  0  0  0  0  0  0  0  0
   17.6160   -4.4783   -0.5865 C   0  0  0  0  0  0  0  0  0  0  0  0
   18.8081   -5.1423   -0.3834 C   0  0  0  0  0  0  0  0  0  0  0  0
   14.9409   -4.3354   -1.1058 S   0  0  0  0  0  0  0  0  0  0  0  0
   14.1673   -5.2395   -1.8825 O   0  0  0  0  0  0  0  0  0  0  0  0
   14.2207   -4.1939    0.5531 C   0  0  0  0  0  0  0  0  0  0  0  0
   23.6855   -7.5295    0.4614 C   0  0  0  0  0  0  0  0  0  0  0  0
   24.3073   -8.2978    1.4552 C   0  0  0  0  0  0  0  0  0  0  0  0
   25.6558   -8.1275    1.6848 C   0  0  0  0  0  0  0  0  0  0  0  0
   26.3564   -7.2500    0.9910 N   0  0  0  0  0  0  0  0  0  0  0  0
   25.8100   -6.5032    0.0497 C   0  0  0  0  0  0  0  0  0  0  0  0
   24.4689   -6.6105   -0.2501 C   0  0  0  0  0  0  0  0  0  0  0  0
   22.0926  -15.1594    0.3322 H   0  0  0  0  0  0  0  0  0  0  0  0
   22.9230  -14.7523    1.8530 H   0  0  0  0  0  0  0  0  0  0  0  0
   21.3207  -15.5264    1.8935 H   0  0  0  0  0  0  0  0  0  0  0  0
   23.6460  -13.7714    0.1536 H   0  0  0  0  0  0  0  0  0  0  0  0
   24.8551  -11.9608   -0.9894 H   0  0  0  0  0  0  0  0  0  0  0  0
   23.8995   -9.6966   -1.0723 H   0  0  0  0  0  0  0  0  0  0  0  0
   20.5015  -11.0586    1.1565 H   0  0  0  0  0  0  0  0  0  0  0  0
   17.6935   -8.3291   -0.7317 H   0  0  0  0  0  0  0  0  0  0  0  0
   15.5793   -7.1247   -1.0909 H   0  0  0  0  0  0  0  0  0  0  0  0
   17.5867   -3.3994   -0.5474 H   0  0  0  0  0  0  0  0  0  0  0  0
   19.7114   -4.5845   -0.1854 H   0  0  0  0  0  0  0  0  0  0  0  0
   14.8998   -3.6359    1.1977 H   0  0  0  0  0  0  0  0  0  0  0  0
   13.2663   -3.6709    0.4914 H   0  0  0  0  0  0  0  0  0  0  0  0
   14.0631   -5.1899    0.9669 H   0  0  0  0  0  0  0  0  0  0  0  0
   23.7395   -9.0146    2.0298 H   0  0  0  0  0  0  0  0  0  0  0  0
   26.1449   -8.7171    2.4461 H   0  0  0  0  0  0  0  0  0  0  0  0
   26.4222   -5.7980   -0.4928 H   0  0  0  0  0  0  0  0  0  0  0  0
   24.0287   -5.9961   -1.0216 H   0  0  0  0  0  0  0  0  0  0  0  0
  1  2  1  0  0  0  0
  1 30  1  0  0  0  0
  1 31  1  0  0  0  0
  1 32  1  0  0  0  0
  2  3  1  0  0  0  0
  3  8  2  0  0  0  0
  3  4  1  0  0  0  0
  4  5  2  0  0  0  0
  4 33  1  0  0  0  0
  5  6  1  0  0  0  0
  5 34  1  0  0  0  0
  6  7  2  0  0  0  0
  6 35  1  0  0  0  0
  7  8  1  0  0  0  0
  7  9  1  0  0  0  0
  8 36  1  0  0  0  0
  9 14  1  0  0  0  0
  9 10  2  0  0  0  0
 10 11  1  0  0  0  0
 10 24  1  0  0  0  0
 11 13  2  0  0  0  0
 12 14  1  0  0  0  0
 13 15  1  0  0  0  0
 13 14  1  0  0  0  0
 15 20  2  0  0  0  0
 15 16  1  0  0  0  0
 16 17  2  0  0  0  0
 16 37  1  0  0  0  0
 17 18  1  0  0  0  0
 17 38  1  0  0  0  0
 18 19  2  0  0  0  0
 18 21  1  0  0  0  0
 19 20  1  0  0  0  0
 19 39  1  0  0  0  0
 20 40  1  0  0  0  0
 21 22  2  0  0  0  0
 21 23  1  0  0  0  0
 23 41  1  0  0  0  0
 23 42  1  0  0  0  0
 23 43  1  0  0  0  0
 24 29  2  0  0  0  0
 24 25  1  0  0  0  0
 25 26  2  0  0  0  0
 25 44  1  0  0  0  0
 26 27  1  0  0  0  0
 26 45  1  0  0  0  0
 27 28  2  0  0  0  0
 28 29  1  0  0  0  0
 28 46  1  0  0  0  0
 29 47  1  0  0  0  0
M  END
