
  ACD/Labs07171520393D

 40 43  0  0  0  0  0  0  0  0  1 V2000
   22.7905   -4.5589    2.3476 C   0  0  0  0  0  0  0  0  0  0  0  0
   21.8078   -4.4006    1.3865 C   0  0  0  0  0  0  0  0  0  0  0  0
   21.2348   -5.5062    0.7929 C   0  0  0  0  0  0  0  0  0  0  0  0
   21.6486   -6.7868    1.1638 C   0  0  0  0  0  0  0  0  0  0  0  0
   22.6368   -6.9394    2.1380 C   0  0  0  0  0  0  0  0  0  0  0  0
   23.2055   -5.8253    2.7195 C   0  0  0  0  0  0  0  0  0  0  0  0
   21.0387   -7.9759    0.5324 C   0  0  0  0  0  0  0  0  0  0  0  0
   20.0670   -7.9577   -0.4205 C   0  0  0  0  0  0  0  0  0  0  0  0
   19.7681   -9.2965   -0.7498 C   0  0  0  0  0  0  0  0  0  0  0  0
   20.5861  -10.1005    0.0310 C   0  0  0  0  0  0  0  0  0  0  0  0
   21.3539   -9.2813    0.8141 N   0  0  0  0  0  0  0  0  0  0  0  0
   22.0143   -9.5754    1.4608 H   0  0  0  0  0  0  0  0  0  0  0  0
   20.6181  -11.5760    0.0233 C   0  0  0  0  0  0  0  0  0  0  0  0
   19.4238  -12.3030    0.0308 C   0  0  0  0  0  0  0  0  0  0  0  0
   19.4522  -13.6829    0.0173 C   0  0  0  0  0  0  0  0  0  0  0  0
   20.6585  -14.3554    0.0080 C   0  0  0  0  0  0  0  0  0  0  0  0
   21.8600  -13.6421    0.0003 C   0  0  0  0  0  0  0  0  0  0  0  0
   21.8394  -12.2486    0.0080 C   0  0  0  0  0  0  0  0  0  0  0  0
   23.1095  -14.3413   -0.0158 C   0  0  0  0  0  0  0  0  0  0  0  0
   24.1008  -14.8960   -0.0287 N   0  0  0  0  0  0  0  0  0  0  0  0
   18.7695   -9.7570   -1.7419 C   0  0  0  0  0  0  0  0  0  0  0  0
   19.1114  -10.6917   -2.7253 C   0  0  0  0  0  0  0  0  0  0  0  0
   18.1493  -11.0965   -3.6264 C   0  0  0  0  0  0  0  0  0  0  0  0
   16.9247  -10.6072   -3.5755 N   0  0  0  0  0  0  0  0  0  0  0  0
   16.5623   -9.7206   -2.6676 C   0  0  0  0  0  0  0  0  0  0  0  0
   17.4598   -9.2651   -1.7251 C   0  0  0  0  0  0  0  0  0  0  0  0
   23.2358   -3.6900    2.8092 H   0  0  0  0  0  0  0  0  0  0  0  0
   21.4888   -3.4093    1.1002 H   0  0  0  0  0  0  0  0  0  0  0  0
   20.4681   -5.3813    0.0426 H   0  0  0  0  0  0  0  0  0  0  0  0
   22.9584   -7.9275    2.4324 H   0  0  0  0  0  0  0  0  0  0  0  0
   23.9731   -5.9419    3.4704 H   0  0  0  0  0  0  0  0  0  0  0  0
   19.6078   -7.0780   -0.8467 H   0  0  0  0  0  0  0  0  0  0  0  0
   18.4770  -11.7837    0.0426 H   0  0  0  0  0  0  0  0  0  0  0  0
   18.5267  -14.2395    0.0187 H   0  0  0  0  0  0  0  0  0  0  0  0
   20.6732  -15.4353    0.0020 H   0  0  0  0  0  0  0  0  0  0  0  0
   22.7651  -11.6923    0.0018 H   0  0  0  0  0  0  0  0  0  0  0  0
   20.1128  -11.0930   -2.7755 H   0  0  0  0  0  0  0  0  0  0  0  0
   18.4026  -11.8203   -4.3869 H   0  0  0  0  0  0  0  0  0  0  0  0
   15.5492   -9.3465   -2.6630 H   0  0  0  0  0  0  0  0  0  0  0  0
   17.1563   -8.5397   -0.9848 H   0  0  0  0  0  0  0  0  0  0  0  0
  1  6  2  0  0  0  0
  1  2  1  0  0  0  0
  1 27  1  0  0  0  0
  2  3  2  0  0  0  0
  2 28  1  0  0  0  0
  3  4  1  0  0  0  0
  3 29  1  0  0  0  0
  4  5  2  0  0  0  0
  4  7  1  0  0  0  0
  5  6  1  0  0  0  0
  5 30  1  0  0  0  0
  6 31  1  0  0  0  0
  7 11  1  0  0  0  0
  7  8  2  0  0  0  0
  8  9  1  0  0  0  0
  8 32  1  0  0  0  0
  9 10  2  0  0  0  0
  9 21  1  0  0  0  0
 10 11  1  0  0  0  0
 10 13  1  0  0  0  0
 11 12  1  0  0  0  0
 13 18  2  0  0  0  0
 13 14  1  0  0  0  0
 14 15  2  0  0  0  0
 14 33  1  0  0  0  0
 15 16  1  0  0  0  0
 15 34  1  0  0  0  0
 16 17  2  0  0  0  0
 16 35  1  0  0  0  0
 17 18  1  0  0  0  0
 17 19  1  0  0  0  0
 18 36  1  0  0  0  0
 19 20  3  0  0  0  0
 21 26  2  0  0  0  0
 21 22  1  0  0  0  0
 22 23  2  0  0  0  0
 22 37  1  0  0  0  0
 23 24  1  0  0  0  0
 23 38  1  0  0  0  0
 24 25  2  0  0  0  0
 25 26  1  0  0  0  0
 25 39  1  0  0  0  0
 26 40  1  0  0  0  0
M  END
