
  ACD/Labs07171520393D

 65 69  0  0  0  0  0  0  0  0  2 V2000
   18.0802  -18.3788   -7.4908 C   0  0  0  0  0  0  0  0  0  0  0  0
   17.4371  -18.3174   -6.2161 O   0  0  0  0  0  0  0  0  0  0  0  0
   17.1763  -17.0811   -5.7156 C   0  0  0  0  0  0  0  0  0  0  0  0
   16.5539  -16.9477   -4.4829 C   0  0  0  0  0  0  0  0  0  0  0  0
   16.2903  -15.6900   -3.9760 C   0  0  0  0  0  0  0  0  0  0  0  0
   16.6462  -14.5646   -4.6962 C   0  0  0  0  0  0  0  0  0  0  0  0
   17.2615  -14.6949   -5.9275 C   0  0  0  0  0  0  0  0  0  0  0  0
   17.5324  -15.9504   -6.4362 C   0  0  0  0  0  0  0  0  0  0  0  0
   16.3574  -13.1937   -4.1409 C   0  0  0  0  0  0  0  0  0  0  0  0
   17.4971  -12.7416   -3.3391 N   0  0  0  0  0  0  0  0  0  0  0  0
   17.4622  -11.5022   -2.7238 C   0  0  0  0  0  0  0  0  0  0  0  0
   16.3889  -10.7383   -2.8714 N   0  0  0  0  0  0  0  0  0  0  0  0
   16.3149   -9.5460   -2.2992 C   0  0  0  0  0  0  0  0  0  0  0  0
   17.3751   -9.0942   -1.5368 C   0  0  0  0  0  0  0  0  0  0  0  0
   18.4971   -9.9221   -1.3976 C   0  0  0  0  0  0  0  0  0  0  0  0
   18.5028  -11.1090   -2.0076 N   0  0  0  0  0  0  0  0  0  0  0  0
   19.6546   -9.4865   -0.5954 C   0  0  0  0  0  0  0  0  0  0  0  0
   20.5849  -10.2977    0.0314 C   0  0  0  0  0  0  0  0  0  0  0  0
   21.4636   -9.4927    0.6543 N   0  0  0  0  0  0  0  0  0  0  0  0
   21.1403   -8.2466    0.4439 C   0  0  0  0  0  0  0  0  0  0  0  0
   20.0290   -8.1903   -0.3186 N   0  0  0  0  0  0  0  0  0  0  0  0
   19.5630   -7.3607   -0.6261 H   0  0  0  0  0  0  0  0  0  0  0  0
   21.8900   -7.0527    0.9764 C   0  0  0  0  0  0  0  0  0  0  0  0
   20.8996   -5.9332    1.3089 C   0  0  0  0  0  0  0  0  0  0  0  0
   21.6711   -4.7028    1.7914 C   0  0  0  0  0  0  0  0  0  0  0  0
   23.5900   -5.3047    0.4394 C   0  0  0  0  0  0  0  0  0  0  0  0
   22.8757   -6.5531   -0.0834 C   0  0  0  0  0  0  0  0  0  0  0  0
   20.6050  -11.7791    0.0227 C   0  0  0  0  0  0  0  0  0  0  0  0
   19.4083  -12.4957    0.0298 C   0  0  0  0  0  0  0  0  0  0  0  0
   19.4334  -13.8750    0.0173 C   0  0  0  0  0  0  0  0  0  0  0  0
   20.6425  -14.5477    0.0080 C   0  0  0  0  0  0  0  0  0  0  0  0
   21.8325  -13.8426    0.0004 C   0  0  0  0  0  0  0  0  0  0  0  0
   21.8202  -12.4626    0.0079 C   0  0  0  0  0  0  0  0  0  0  0  0
   23.1451  -14.5829   -0.0156 C   0  0  0  0  0  0  0  0  0  0  0  0
   22.9033  -15.9608   -0.0203 F   0  0  0  0  0  0  0  0  0  0  0  0
   23.8645  -14.2317   -1.1629 F   0  0  0  0  0  0  0  0  0  0  0  0
   23.8859  -14.2433    1.1215 F   0  0  0  0  0  0  0  0  0  0  0  0
   18.2294  -19.4211   -7.7727 H   0  0  0  0  0  0  0  0  0  0  0  0
   17.4561  -17.8865   -8.2367 H   0  0  0  0  0  0  0  0  0  0  0  0
   19.0455  -17.8756   -7.4354 H   0  0  0  0  0  0  0  0  0  0  0  0
   16.2754  -17.8265   -3.9202 H   0  0  0  0  0  0  0  0  0  0  0  0
   15.8061  -15.5856   -3.0163 H   0  0  0  0  0  0  0  0  0  0  0  0
   17.5342  -13.8144   -6.4903 H   0  0  0  0  0  0  0  0  0  0  0  0
   18.0170  -16.0516   -7.3960 H   0  0  0  0  0  0  0  0  0  0  0  0
   15.4664  -13.2358   -3.5145 H   0  0  0  0  0  0  0  0  0  0  0  0
   16.1916  -12.4966   -4.9622 H   0  0  0  0  0  0  0  0  0  0  0  0
   18.2762  -13.3108   -3.2395 H   0  0  0  0  0  0  0  0  0  0  0  0
   15.4347   -8.9334   -2.4269 H   0  0  0  0  0  0  0  0  0  0  0  0
   17.3398   -8.1261   -1.0594 H   0  0  0  0  0  0  0  0  0  0  0  0
   22.4356   -7.3368    1.8762 H   0  0  0  0  0  0  0  0  0  0  0  0
   20.3270   -5.6772    0.4175 H   0  0  0  0  0  0  0  0  0  0  0  0
   20.2216   -6.2685    2.0938 H   0  0  0  0  0  0  0  0  0  0  0  0
   22.2326   -4.9558    2.6908 H   0  0  0  0  0  0  0  0  0  0  0  0
   20.9697   -3.8991    2.0155 H   0  0  0  0  0  0  0  0  0  0  0  0
   24.1425   -5.5549    1.3451 H   0  0  0  0  0  0  0  0  0  0  0  0
   24.2823   -4.9382   -0.3185 H   0  0  0  0  0  0  0  0  0  0  0  0
   23.6096   -7.3312   -0.2933 H   0  0  0  0  0  0  0  0  0  0  0  0
   22.3343   -6.3068   -0.9968 H   0  0  0  0  0  0  0  0  0  0  0  0
   18.4640  -11.9717    0.0413 H   0  0  0  0  0  0  0  0  0  0  0  0
   18.5075  -14.4309    0.0191 H   0  0  0  0  0  0  0  0  0  0  0  0
   20.6572  -15.6276    0.0020 H   0  0  0  0  0  0  0  0  0  0  0  0
   22.7500  -11.9132    0.0020 H   0  0  0  0  0  0  0  0  0  0  0  0
   22.5995   -4.2526    0.7368 N   0  3  0  0  0  0  0  0  0  0  0  0
   23.0886   -3.4077    1.0550 H   0  0  0  0  0  0  0  0  0  0  0  0
   22.0665   -4.0394   -0.1145 H   0  0  0  0  0  0  0  0  0  0  0  0
  1  2  1  0  0  0  0
  1 38  1  0  0  0  0
  1 39  1  0  0  0  0
  1 40  1  0  0  0  0
  2  3  1  0  0  0  0
  3  8  2  0  0  0  0
  3  4  1  0  0  0  0
  4  5  2  0  0  0  0
  4 41  1  0  0  0  0
  5  6  1  0  0  0  0
  5 42  1  0  0  0  0
  6  7  2  0  0  0  0
  6  9  1  0  0  0  0
  7  8  1  0  0  0  0
  7 43  1  0  0  0  0
  8 44  1  0  0  0  0
  9 10  1  0  0  0  0
  9 45  1  0  0  0  0
  9 46  1  0  0  0  0
 10 11  1  0  0  0  0
 10 47  1  0  0  0  0
 11 16  2  0  0  0  0
 11 12  1  0  0  0  0
 12 13  2  0  0  0  0
 13 14  1  0  0  0  0
 13 48  1  0  0  0  0
 14 15  2  0  0  0  0
 14 49  1  0  0  0  0
 15 16  1  0  0  0  0
 15 17  1  0  0  0  0
 17 21  1  0  0  0  0
 17 18  2  0  0  0  0
 18 19  1  0  0  0  0
 18 28  1  0  0  0  0
 19 20  2  0  0  0  0
 20 21  1  0  0  0  0
 20 23  1  0  0  0  0
 21 22  1  0  0  0  0
 23 27  1  0  0  0  0
 23 24  1  0  0  0  0
 23 50  1  0  0  0  0
 24 25  1  0  0  0  0
 24 51  1  0  0  0  0
 24 52  1  0  0  0  0
 25 53  1  0  0  0  0
 25 54  1  0  0  0  0
 25 63  1  0  0  0  0
 26 27  1  0  0  0  0
 26 55  1  0  0  0  0
 26 56  1  0  0  0  0
 26 63  1  0  0  0  0
 27 57  1  0  0  0  0
 27 58  1  0  0  0  0
 28 33  2  0  0  0  0
 28 29  1  0  0  0  0
 29 30  2  0  0  0  0
 29 59  1  0  0  0  0
 30 31  1  0  0  0  0
 30 60  1  0  0  0  0
 31 32  2  0  0  0  0
 31 61  1  0  0  0  0
 32 33  1  0  0  0  0
 32 34  1  0  0  0  0
 33 62  1  0  0  0  0
 34 35  1  0  0  0  0
 34 36  1  0  0  0  0
 34 37  1  0  0  0  0
 63 64  1  0  0  0  0
 63 65  1  0  0  0  0
M  CHG  1  63   1
M  END
