ZINC03832320
  -OEChem-08230709403D

 42 44  0     0  0  0  0  0  0999 V2000
   -3.1527    2.1337    7.6948 C   0  0  0  0  0  0  0  0  0  0  0  0
   -2.2414    3.2490    8.1382 C   0  0  0  0  0  0  0  0  0  0  0  0
   -2.4535    3.9234    9.3260 C   0  0  0  0  0  0  0  0  0  0  0  0
   -1.1144    5.1010    9.3383 S   0  0  0  0  0  0  0  0  0  0  0  0
   -0.3613    4.6656    7.8392 C   0  0  0  0  0  0  0  0  0  0  0  0
   -1.1574    3.6417    7.3731 C   0  0  0  0  0  0  0  0  0  0  0  0
   -0.8553    2.9715    6.0833 C   0  0  0  0  0  0  0  0  0  0  0  0
   -0.4855    1.6266    6.0686 C   0  0  0  0  0  0  0  0  0  0  0  0
   -0.2041    0.9932    4.8737 C   0  0  0  0  0  0  0  0  0  0  0  0
   -0.2895    1.6959    3.6852 C   0  0  0  0  0  0  0  0  0  0  0  0
   -0.6585    3.0515    3.6900 C   0  0  0  0  0  0  0  0  0  0  0  0
   -0.9425    3.6871    4.8924 C   0  0  0  0  0  0  0  0  0  0  0  0
   -0.7332    3.7707    2.4025 C   0  0  0  0  0  0  0  0  0  0  0  0
   -0.7590    3.0844    1.2672 C   0  0  0  0  0  0  0  0  0  0  0  0
   -0.7288    1.5792    1.2668 C   0  0  0  0  0  0  0  0  0  0  0  0
   -0.0171    1.0918    2.4554 N   0  0  0  0  0  0  0  0  0  0  0  0
   -0.0127    1.0858    0.0080 C   0  0  0  0  0  0  0  0  0  0  0  0
   -2.1623    1.0445    1.2782 C   0  0  0  0  0  0  0  0  0  0  0  0
   -0.7794    5.2767    2.3781 C   0  0  0  0  0  0  0  0  0  0  0  0
    0.8656    5.2630    7.1996 C   0  0  0  0  0  0  0  0  0  0  0  0
   -3.4858    3.7268   10.2988 C   0  0  0  0  0  0  0  0  0  0  0  0
   -4.3047    3.5708   11.0705 N   0  0  0  0  0  0  0  0  0  0  0  0
   -2.7792    1.1847    8.0795 H   0  0  0  0  0  0  0  0  0  0  0  0
   -4.1574    2.3111    8.0786 H   0  0  0  0  0  0  0  0  0  0  0  0
   -3.1807    2.0985    6.6058 H   0  0  0  0  0  0  0  0  0  0  0  0
   -0.4190    1.0775    6.9962 H   0  0  0  0  0  0  0  0  0  0  0  0
    0.0817   -0.0483    4.8674 H   0  0  0  0  0  0  0  0  0  0  0  0
   -1.2283    4.7285    4.9031 H   0  0  0  0  0  0  0  0  0  0  0  0
   -0.8020    3.6147    0.3273 H   0  0  0  0  0  0  0  0  0  0  0  0
    0.6261    0.3688    2.3881 H   0  0  0  0  0  0  0  0  0  0  0  0
    0.0021   -0.0041    0.0020 H   0  0  0  0  0  0  0  0  0  0  0  0
    1.0099    1.4631    0.0003 H   0  0  0  0  0  0  0  0  0  0  0  0
   -0.5399    1.4469   -0.8751 H   0  0  0  0  0  0  0  0  0  0  0  0
   -2.1436   -0.0453    1.2736 H   0  0  0  0  0  0  0  0  0  0  0  0
   -2.6738    1.3953    2.1746 H   0  0  0  0  0  0  0  0  0  0  0  0
   -2.6908    1.4027    0.3947 H   0  0  0  0  0  0  0  0  0  0  0  0
    0.2358    5.6707    2.3299 H   0  0  0  0  0  0  0  0  0  0  0  0
   -1.3399    5.6089    1.5042 H   0  0  0  0  0  0  0  0  0  0  0  0
   -1.2675    5.6400    3.2825 H   0  0  0  0  0  0  0  0  0  0  0  0
    0.5721    6.0895    6.5525 H   0  0  0  0  0  0  0  0  0  0  0  0
    1.5376    5.6299    7.9754 H   0  0  0  0  0  0  0  0  0  0  0  0
    1.3744    4.5016    6.6085 H   0  0  0  0  0  0  0  0  0  0  0  0
  1  2  1  0  0  0  0
  1 23  1  0  0  0  0
  1 24  1  0  0  0  0
  1 25  1  0  0  0  0
  2  6  1  0  0  0  0
  2  3  2  0  0  0  0
  3  4  1  0  0  0  0
  3 21  1  0  0  0  0
  4  5  1  0  0  0  0
  5  6  2  0  0  0  0
  5 20  1  0  0  0  0
  6  7  1  0  0  0  0
  7 12  2  0  0  0  0
  7  8  1  0  0  0  0
  8  9  2  0  0  0  0
  8 26  1  0  0  0  0
  9 10  1  0  0  0  0
  9 27  1  0  0  0  0
 10 16  1  0  0  0  0
 10 11  2  0  0  0  0
 11 12  1  0  0  0  0
 11 13  1  0  0  0  0
 12 28  1  0  0  0  0
 13 14  2  0  0  0  0
 13 19  1  0  0  0  0
 14 15  1  0  0  0  0
 14 29  1  0  0  0  0
 15 16  1  0  0  0  0
 15 17  1  0  0  0  0
 15 18  1  0  0  0  0
 16 30  1  0  0  0  0
 17 31  1  0  0  0  0
 17 32  1  0  0  0  0
 17 33  1  0  0  0  0
 18 34  1  0  0  0  0
 18 35  1  0  0  0  0
 18 36  1  0  0  0  0
 19 37  1  0  0  0  0
 19 38  1  0  0  0  0
 19 39  1  0  0  0  0
 20 40  1  0  0  0  0
 20 41  1  0  0  0  0
 20 42  1  0  0  0  0
 21 22  3  0  0  0  0
M  END
$$$$
