ZINC03832323
  -OEChem-08230709403D

 37 39  0     0  0  0  0  0  0999 V2000
   -0.7824    5.2761    2.3800 C   0  0  0  0  0  0  0  0  0  0  0  0
   -0.7361    3.7700    2.4029 C   0  0  0  0  0  0  0  0  0  0  0  0
   -0.7592    3.0844    1.2670 C   0  0  0  0  0  0  0  0  0  0  0  0
   -0.7288    1.5792    1.2668 C   0  0  0  0  0  0  0  0  0  0  0  0
   -0.0172    1.0918    2.4552 N   0  0  0  0  0  0  0  0  0  0  0  0
   -0.2899    1.6926    3.6832 C   0  0  0  0  0  0  0  0  0  0  0  0
   -0.6642    3.0486    3.6896 C   0  0  0  0  0  0  0  0  0  0  0  0
   -0.9521    3.6810    4.8902 C   0  0  0  0  0  0  0  0  0  0  0  0
   -0.8623    2.9625    6.0841 C   0  0  0  0  0  0  0  0  0  0  0  0
   -0.4843    1.6165    6.0668 C   0  0  0  0  0  0  0  0  0  0  0  0
   -0.2010    0.9878    4.8716 C   0  0  0  0  0  0  0  0  0  0  0  0
   -1.1666    3.6256    7.3676 C   0  0  0  0  0  0  0  0  0  0  0  0
   -1.1433    3.0945    8.6505 C   0  0  0  0  0  0  0  0  0  0  0  0
   -1.4615    3.9020    9.7013 C   0  0  0  0  0  0  0  0  0  0  0  0
   -1.8078    5.2268    9.4441 C   0  0  0  0  0  0  0  0  0  0  0  0
   -1.6662    5.3132    7.6665 S   0  0  0  0  0  0  0  0  0  0  0  0
   -2.1759    6.2386   10.3536 C   0  0  0  0  0  0  0  0  0  0  0  0
   -2.2203    5.9989   11.5438 O   0  0  0  0  0  0  0  0  0  0  0  0
   -0.0127    1.0858    0.0080 C   0  0  0  0  0  0  0  0  0  0  0  0
   -2.1623    1.0444    1.2783 C   0  0  0  0  0  0  0  0  0  0  0  0
    0.2329    5.6702    2.3345 H   0  0  0  0  0  0  0  0  0  0  0  0
   -1.3410    5.6093    1.5053 H   0  0  0  0  0  0  0  0  0  0  0  0
   -1.2725    5.6383    3.2838 H   0  0  0  0  0  0  0  0  0  0  0  0
   -0.8002    3.6149    0.3271 H   0  0  0  0  0  0  0  0  0  0  0  0
    0.6270    0.3698    2.3874 H   0  0  0  0  0  0  0  0  0  0  0  0
   -1.2431    4.7210    4.9014 H   0  0  0  0  0  0  0  0  0  0  0  0
   -0.4145    1.0660    6.9933 H   0  0  0  0  0  0  0  0  0  0  0  0
    0.0897   -0.0523    4.8631 H   0  0  0  0  0  0  0  0  0  0  0  0
   -0.8751    2.0610    8.8128 H   0  0  0  0  0  0  0  0  0  0  0  0
   -1.4491    3.5219   10.7121 H   0  0  0  0  0  0  0  0  0  0  0  0
   -2.4185    7.2271    9.9924 H   0  0  0  0  0  0  0  0  0  0  0  0
    0.0021   -0.0041    0.0020 H   0  0  0  0  0  0  0  0  0  0  0  0
    1.0099    1.4631    0.0003 H   0  0  0  0  0  0  0  0  0  0  0  0
   -0.5399    1.4469   -0.8751 H   0  0  0  0  0  0  0  0  0  0  0  0
   -2.1435   -0.0454    1.2736 H   0  0  0  0  0  0  0  0  0  0  0  0
   -2.6738    1.3951    2.1746 H   0  0  0  0  0  0  0  0  0  0  0  0
   -2.6907    1.4025    0.3947 H   0  0  0  0  0  0  0  0  0  0  0  0
  1  2  1  0  0  0  0
  1 21  1  0  0  0  0
  1 22  1  0  0  0  0
  1 23  1  0  0  0  0
  2  7  1  0  0  0  0
  2  3  2  0  0  0  0
  3  4  1  0  0  0  0
  3 24  1  0  0  0  0
  4  5  1  0  0  0  0
  4 19  1  0  0  0  0
  4 20  1  0  0  0  0
  5  6  1  0  0  0  0
  5 25  1  0  0  0  0
  6 11  2  0  0  0  0
  6  7  1  0  0  0  0
  7  8  2  0  0  0  0
  8  9  1  0  0  0  0
  8 26  1  0  0  0  0
  9 10  2  0  0  0  0
  9 12  1  0  0  0  0
 10 11  1  0  0  0  0
 10 27  1  0  0  0  0
 11 28  1  0  0  0  0
 12 16  1  0  0  0  0
 12 13  2  0  0  0  0
 13 14  1  0  0  0  0
 13 29  1  0  0  0  0
 14 15  2  0  0  0  0
 14 30  1  0  0  0  0
 15 16  1  0  0  0  0
 15 17  1  0  0  0  0
 17 18  2  0  0  0  0
 17 31  1  0  0  0  0
 19 32  1  0  0  0  0
 19 33  1  0  0  0  0
 19 34  1  0  0  0  0
 20 35  1  0  0  0  0
 20 36  1  0  0  0  0
 20 37  1  0  0  0  0
M  END
$$$$
