1f8d/ligand
 OpenBabel04140820253D

 38 38  0  0  0  0  0  0  0  0999 V2000
   23.2850   19.6650   64.4170 C   0  0  0  0  0
   23.9980   18.6370   63.8220 C   0  0  0  0  0
   23.4210   17.4750   63.4510 C   0  0  0  0  0
   24.1580   16.4280   62.7590 C   0  0  0  0  0
   25.7060   16.6180   62.7580 C   0  0  0  0  0
   26.0420   18.1330   62.6380 C   0  0  0  0  0
   27.5650   18.4500   62.7740 C   0  0  0  0  0
   27.9240   19.9380   62.4710 C   0  0  0  0  0
   29.4070   20.3170   62.7620 C   0  0  0  0  0
   27.1390   14.8780   61.7400 C   0  0  0  0  0
   27.5680   14.2520   60.5150 C   0  0  0  0  0
   26.2760   15.8790   61.6670 N   0  0  0  0  0
   23.9050   20.8130   64.7730 O   0  0  0  0  0
   21.9600   19.5790   64.6960 O   0  0  0  0  0
   23.8380   15.1660   63.3360 O   0  0  0  0  0
   25.3260   18.8500   63.6680 O   0  0  0  0  0
   28.0110   18.0980   64.0880 O   0  0  0  0  0
   27.6280   20.2530   61.1080 O   0  0  0  0  0
   30.3770   19.5050   62.0050 N   0  0  0  0  0
   27.5830   14.4760   62.8080 O   0  0  0  0  0
   22.4410   17.3480   63.5660 H   0  0  0  0  0
   23.7920   16.4160   61.7280 H   0  0  0  0  0
   26.0890   16.2680   63.7240 H   0  0  0  0  0
   25.6990   18.4900   61.6640 H   0  0  0  0  0
   28.1180   17.8270   62.0690 H   0  0  0  0  0
   27.2970   20.5850   63.0900 H   0  0  0  0  0
   29.5680   21.3680   62.5040 H   0  0  0  0  0
   29.6150   20.1940   63.8320 H   0  0  0  0  0
   26.7000   13.8390   59.9950 H   0  0  0  0  0
   28.2750   13.4400   60.6980 H   0  0  0  0  0
   28.0480   14.9870   59.8690 H   0  0  0  0  0
   25.9830   16.1330   60.7780 H   0  0  0  0  0
   24.1600   15.2120   64.2600 H   0  0  0  0  0
   27.5150   18.6890   64.6940 H   0  0  0  0  0
   28.2050   19.6630   60.5810 H   0  0  0  0  0
   30.2500   18.5130   62.2310 H   0  0  0  0  0
   31.3230   19.7990   62.2590 H   0  0  0  0  0
   30.2320   19.6510   60.9960 H   0  0  0  0  0
  1 14  2  0  0  0
  1 13  1  0  0  0
  2  1  1  0  0  0
 16  2  1  0  0  0
  3  2  2  0  0  0
  4  3  1  0  0  0
  3 21  1  0  0  0
  4 15  1  0  0  0
  5  4  1  0  0  0
  4 22  1  0  0  0
 12  5  1  0  0  0
  5  6  1  0  0  0
  5 23  1  0  0  0
  6 16  1  0  0  0
  6  7  1  0  0  0
  6 24  1  0  0  0
  7 17  1  0  0  0
  7  8  1  0  0  0
  7 25  1  0  0  0
  8 18  1  0  0  0
  8  9  1  0  0  0
  8 26  1  0  0  0
  9 19  1  0  0  0
  9 27  1  0  0  0
  9 28  1  0  0  0
 10 12  1  0  0  0
 10 20  2  0  0  0
 10 11  1  0  0  0
 11 29  1  0  0  0
 11 30  1  0  0  0
 11 31  1  0  0  0
 12 32  1  0  0  0
 15 33  1  0  0  0
 17 34  1  0  0  0
 18 35  1  0  0  0
 19 36  1  0  0  0
 19 37  1  0  0  0
 19 38  1  0  0  0
M  END
