ZINC04134489
  -OEChem-08230709403D

 45 45  0     1  0  0  0  0  0999 V2000
   -0.0187    1.5258    0.0104 C   0  0  0  0  0  0  0  0  0  0  0  0
    0.0021   -0.0041    0.0020 C   0  0  0  0  0  0  0  0  0  0  0  0
   -1.4333   -0.5336    0.0129 C   0  0  2  0  0  0  0  0  0  0  0  0
   -1.9701   -0.1109    0.8621 H   0  0  0  0  0  0  0  0  0  0  0  0
   -1.4133   -2.0590    0.1302 C   0  0  0  0  0  0  0  0  0  0  0  0
   -2.8242   -2.5711    0.2645 C   0  0  0  0  0  0  0  0  0  0  0  0
   -3.2749   -3.4755   -0.5692 C   0  0  0  0  0  0  0  0  0  0  0  0
   -2.0889   -0.1578   -1.2000 O   0  0  0  0  0  0  0  0  0  0  0  0
   -2.7597    1.1021   -1.1317 C   0  0  2  0  0  0  0  0  0  0  0  0
   -2.2428    1.7488   -0.4227 H   0  0  0  0  0  0  0  0  0  0  0  0
   -4.1727    0.8892   -0.6724 C   0  0  0  0  0  0  0  0  0  0  0  0
   -5.2133    1.5004   -1.1984 C   0  0  0  0  0  0  0  0  0  0  0  0
   -5.1205    2.4817   -2.3304 C   0  0  0  0  0  0  0  0  0  0  0  0
   -3.6804    2.9760   -2.4822 C   0  0  1  0  0  0  0  0  0  0  0  0
   -3.4211    3.6136   -1.6370 H   0  0  0  0  0  0  0  0  0  0  0  0
   -2.7485    1.7583   -2.5139 C   0  0  1  0  0  0  0  0  0  0  0  0
   -3.1010    1.0463   -3.2601 H   0  0  0  0  0  0  0  0  0  0  0  0
   -1.3874    2.1888   -2.8433 N   0  0  0  0  0  0  0  0  0  0  0  0
   -0.5198    1.3172   -3.3945 C   0  0  0  0  0  0  0  0  0  0  0  0
   -0.8657    0.1764   -3.6179 O   0  0  0  0  0  0  0  0  0  0  0  0
    0.8803    1.7600   -3.7333 C   0  0  0  0  0  0  0  0  0  0  0  0
   -6.5423    1.2053   -0.6451 C   0  0  0  0  0  0  0  0  0  0  0  0
   -6.6571    0.4163    0.2721 O   0  0  0  0  0  0  0  0  0  0  0  0
    1.0039    1.9031    0.0027 H   0  0  0  0  0  0  0  0  0  0  0  0
   -0.5459    1.8868   -0.8726 H   0  0  0  0  0  0  0  0  0  0  0  0
   -0.5289    1.8773    0.9072 H   0  0  0  0  0  0  0  0  0  0  0  0
    0.5123   -0.3556   -0.8948 H   0  0  0  0  0  0  0  0  0  0  0  0
    0.5293   -0.3651    0.8851 H   0  0  0  0  0  0  0  0  0  0  0  0
   -0.9551   -2.4861   -0.7619 H   0  0  0  0  0  0  0  0  0  0  0  0
   -0.8366   -2.3483    1.0088 H   0  0  0  0  0  0  0  0  0  0  0  0
   -3.4638   -2.1924    1.0480 H   0  0  0  0  0  0  0  0  0  0  0  0
   -4.2861   -3.8425   -0.4730 H   0  0  0  0  0  0  0  0  0  0  0  0
   -2.6352   -3.8542   -1.3527 H   0  0  0  0  0  0  0  0  0  0  0  0
   -4.3458    0.1944    0.1361 H   0  0  0  0  0  0  0  0  0  0  0  0
   -5.4358    1.9979   -3.2548 H   0  0  0  0  0  0  0  0  0  0  0  0
   -5.7724    3.3312   -2.1266 H   0  0  0  0  0  0  0  0  0  0  0  0
   -1.1107    3.1012   -2.6646 H   0  0  0  0  0  0  0  0  0  0  0  0
    1.0051    2.8086   -3.4630 H   0  0  0  0  0  0  0  0  0  0  0  0
    1.5971    1.1541   -3.1791 H   0  0  0  0  0  0  0  0  0  0  0  0
    1.0513    1.6377   -4.8029 H   0  0  0  0  0  0  0  0  0  0  0  0
   -4.1647    4.5303   -3.7424 H   0  0  0  0  0  0  0  0  0  0  0  0
   -2.5907    4.0132   -3.8876 H   0  0  0  0  0  0  0  0  0  0  0  0
   -3.5549    3.7143   -3.7513 N   0  3  0  0  0  0  0  0  0  0  0  0
   -3.8283    3.1002   -4.5274 H   0  0  0  0  0  0  0  0  0  0  0  0
   -7.6340    1.8096   -1.1550 O   0  5  0  0  0  0  0  0  0  0  0  0
  1  2  1  0  0  0  0
  1 24  1  0  0  0  0
  1 25  1  0  0  0  0
  1 26  1  0  0  0  0
  2  3  1  0  0  0  0
  2 27  1  0  0  0  0
  2 28  1  0  0  0  0
  3  4  1  0  0  0  0
  3  5  1  0  0  0  0
  3  8  1  0  0  0  0
  5  6  1  0  0  0  0
  5 29  1  0  0  0  0
  5 30  1  0  0  0  0
  6  7  2  0  0  0  0
  6 31  1  0  0  0  0
  7 32  1  0  0  0  0
  7 33  1  0  0  0  0
  8  9  1  0  0  0  0
  9 10  1  0  0  0  0
  9 16  1  0  0  0  0
  9 11  1  0  0  0  0
 11 12  2  0  0  0  0
 11 34  1  0  0  0  0
 12 13  1  0  0  0  0
 12 22  1  0  0  0  0
 13 14  1  0  0  0  0
 13 35  1  0  0  0  0
 13 36  1  0  0  0  0
 14 15  1  0  0  0  0
 14 16  1  0  0  0  0
 14 43  1  0  0  0  0
 16 17  1  0  0  0  0
 16 18  1  0  0  0  0
 18 19  1  0  0  0  0
 18 37  1  0  0  0  0
 19 20  2  0  0  0  0
 19 21  1  0  0  0  0
 21 38  1  0  0  0  0
 21 39  1  0  0  0  0
 21 40  1  0  0  0  0
 22 23  2  0  0  0  0
 22 45  1  0  0  0  0
 41 43  1  0  0  0  0
 42 43  1  0  0  0  0
 43 44  1  0  0  0  0
M  CHG  2  43   1  45  -1
M  END
$$$$
