ZINC03815463
  -OEChem-08230709403D

 64 68  0     0  0  0  0  0  0999 V2000
   -1.4976   -1.2778   -2.5865 C   0  0  0  0  0  0  0  0  0  0  0  0
   -2.4081   -0.8090   -3.6921 C   0  0  0  0  0  0  0  0  0  0  0  0
   -2.7831   -1.6799   -4.6933 C   0  0  0  0  0  0  0  0  0  0  0  0
   -3.6219   -1.2488   -5.7122 C   0  0  0  0  0  0  0  0  0  0  0  0
   -4.0857    0.0602   -5.7266 C   0  0  0  0  0  0  0  0  0  0  0  0
   -3.7181    0.9342   -4.7258 C   0  0  0  0  0  0  0  0  0  0  0  0
   -2.8716    0.5056   -3.7040 C   0  0  0  0  0  0  0  0  0  0  0  0
   -2.4702    1.4447   -2.6289 C   0  0  0  0  0  0  0  0  0  0  0  0
   -2.8219    2.7865   -2.7216 C   0  0  0  0  0  0  0  0  0  0  0  0
   -2.4375    3.6613   -1.7027 C   0  0  0  0  0  0  0  0  0  0  0  0
   -1.7113    3.1481   -0.6267 C   0  0  0  0  0  0  0  0  0  0  0  0
   -1.3976    1.7948   -0.6054 C   0  0  0  0  0  0  0  0  0  0  0  0
   -0.6747    1.2747    0.4622 N   0  0  0  0  0  0  0  0  0  0  0  0
    0.5939    1.9929    0.6385 C   0  0  0  0  0  0  0  0  0  0  0  0
    1.2930    1.4931    1.9048 C   0  0  0  0  0  0  0  0  0  0  0  0
    1.5497   -0.0113    1.7801 C   0  0  0  0  0  0  0  0  0  0  0  0
    0.2181   -0.7309    1.5489 C   0  0  0  0  0  0  0  0  0  0  0  0
   -0.4498   -0.1666    0.2930 C   0  0  0  0  0  0  0  0  0  0  0  0
    2.1943   -0.5297    3.0672 C   0  0  0  0  0  0  0  0  0  0  0  0
    3.5592    0.0882    3.2297 C   0  0  0  0  0  0  0  0  0  0  0  0
    4.6703   -0.5411    2.7001 C   0  0  0  0  0  0  0  0  0  0  0  0
    5.9217    0.0280    2.8453 C   0  0  0  0  0  0  0  0  0  0  0  0
    6.0633    1.2214    3.5283 C   0  0  0  0  0  0  0  0  0  0  0  0
    4.9528    1.8482    4.0621 C   0  0  0  0  0  0  0  0  0  0  0  0
    3.7009    1.2814    3.9131 C   0  0  0  0  0  0  0  0  0  0  0  0
   -2.7920    5.1011   -1.7630 C   0  0  0  0  0  0  0  0  0  0  0  0
   -2.4056    5.9599   -0.7360 C   0  0  0  0  0  0  0  0  0  0  0  0
   -2.7326    7.2993   -0.8002 C   0  0  0  0  0  0  0  0  0  0  0  0
   -3.4528    7.7872   -1.8756 C   0  0  0  0  0  0  0  0  0  0  0  0
   -3.8442    6.9379   -2.8949 C   0  0  0  0  0  0  0  0  0  0  0  0
   -3.5173    5.5980   -2.8439 C   0  0  0  0  0  0  0  0  0  0  0  0
   -3.9900   -2.1092   -6.6969 O   0  0  0  0  0  0  0  0  0  0  0  0
   -2.0944   -1.5568   -1.7181 H   0  0  0  0  0  0  0  0  0  0  0  0
   -0.9267   -2.1414   -2.9276 H   0  0  0  0  0  0  0  0  0  0  0  0
   -0.8133   -0.4743   -2.3141 H   0  0  0  0  0  0  0  0  0  0  0  0
   -2.4243   -2.6986   -4.6846 H   0  0  0  0  0  0  0  0  0  0  0  0
   -4.7380    0.3927   -6.5205 H   0  0  0  0  0  0  0  0  0  0  0  0
   -4.0825    1.9508   -4.7353 H   0  0  0  0  0  0  0  0  0  0  0  0
   -3.3849    3.1475   -3.5696 H   0  0  0  0  0  0  0  0  0  0  0  0
   -1.3975    3.7949    0.1793 H   0  0  0  0  0  0  0  0  0  0  0  0
    1.2351    1.8148   -0.2248 H   0  0  0  0  0  0  0  0  0  0  0  0
    0.3968    3.0611    0.7300 H   0  0  0  0  0  0  0  0  0  0  0  0
    0.6582    1.6834    2.7702 H   0  0  0  0  0  0  0  0  0  0  0  0
    2.2419    2.0153    2.0268 H   0  0  0  0  0  0  0  0  0  0  0  0
    2.2160   -0.1986    0.9380 H   0  0  0  0  0  0  0  0  0  0  0  0
   -0.4336   -0.5756    2.4087 H   0  0  0  0  0  0  0  0  0  0  0  0
    0.3991   -1.7977    1.4168 H   0  0  0  0  0  0  0  0  0  0  0  0
   -1.4049   -0.6670    0.1335 H   0  0  0  0  0  0  0  0  0  0  0  0
    0.1965   -0.3346   -0.5686 H   0  0  0  0  0  0  0  0  0  0  0  0
    1.5703   -0.2614    3.9197 H   0  0  0  0  0  0  0  0  0  0  0  0
    2.2904   -1.6141    3.0143 H   0  0  0  0  0  0  0  0  0  0  0  0
    4.5602   -1.4755    2.1699 H   0  0  0  0  0  0  0  0  0  0  0  0
    6.7892   -0.4616    2.4280 H   0  0  0  0  0  0  0  0  0  0  0  0
    7.0414    1.6642    3.6447 H   0  0  0  0  0  0  0  0  0  0  0  0
    5.0635    2.7806    4.5958 H   0  0  0  0  0  0  0  0  0  0  0  0
    2.8333    1.7710    4.3304 H   0  0  0  0  0  0  0  0  0  0  0  0
   -1.8471    5.5791    0.1063 H   0  0  0  0  0  0  0  0  0  0  0  0
   -2.4295    7.9667   -0.0071 H   0  0  0  0  0  0  0  0  0  0  0  0
   -3.7102    8.8351   -1.9198 H   0  0  0  0  0  0  0  0  0  0  0  0
   -4.4064    7.3241   -3.7322 H   0  0  0  0  0  0  0  0  0  0  0  0
   -3.8228    4.9359   -3.6406 H   0  0  0  0  0  0  0  0  0  0  0  0
   -4.7998   -2.6020   -6.5062 H   0  0  0  0  0  0  0  0  0  0  0  0
   -1.7537    0.9178   -1.5880 N   0  3  0  0  0  0  0  0  0  0  0  0
   -1.4999   -0.0763   -1.5492 H   0  0  0  0  0  0  0  0  0  0  0  0
  1  2  1  0  0  0  0
  1 33  1  0  0  0  0
  1 34  1  0  0  0  0
  1 35  1  0  0  0  0
  2  7  2  0  0  0  0
  2  3  1  0  0  0  0
  3  4  2  0  0  0  0
  3 36  1  0  0  0  0
  4  5  1  0  0  0  0
  4 32  1  0  0  0  0
  5  6  2  0  0  0  0
  5 37  1  0  0  0  0
  6  7  1  0  0  0  0
  6 38  1  0  0  0  0
  7  8  1  0  0  0  0
  8  9  2  0  0  0  0
  8 63  1  0  0  0  0
  9 10  1  0  0  0  0
  9 39  1  0  0  0  0
 10 11  2  0  0  0  0
 10 26  1  0  0  0  0
 11 12  1  0  0  0  0
 11 40  1  0  0  0  0
 12 13  1  0  0  0  0
 12 63  2  0  0  0  0
 13 18  1  0  0  0  0
 13 14  1  0  0  0  0
 14 15  1  0  0  0  0
 14 41  1  0  0  0  0
 14 42  1  0  0  0  0
 15 16  1  0  0  0  0
 15 43  1  0  0  0  0
 15 44  1  0  0  0  0
 16 17  1  0  0  0  0
 16 19  1  0  0  0  0
 16 45  1  0  0  0  0
 17 18  1  0  0  0  0
 17 46  1  0  0  0  0
 17 47  1  0  0  0  0
 18 48  1  0  0  0  0
 18 49  1  0  0  0  0
 19 20  1  0  0  0  0
 19 50  1  0  0  0  0
 19 51  1  0  0  0  0
 20 25  2  0  0  0  0
 20 21  1  0  0  0  0
 21 22  2  0  0  0  0
 21 52  1  0  0  0  0
 22 23  1  0  0  0  0
 22 53  1  0  0  0  0
 23 24  2  0  0  0  0
 23 54  1  0  0  0  0
 24 25  1  0  0  0  0
 24 55  1  0  0  0  0
 25 56  1  0  0  0  0
 26 31  2  0  0  0  0
 26 27  1  0  0  0  0
 27 28  2  0  0  0  0
 27 57  1  0  0  0  0
 28 29  1  0  0  0  0
 28 58  1  0  0  0  0
 29 30  2  0  0  0  0
 29 59  1  0  0  0  0
 30 31  1  0  0  0  0
 30 60  1  0  0  0  0
 31 61  1  0  0  0  0
 32 62  1  0  0  0  0
 63 64  1  0  0  0  0
M  CHG  1  63   1
M  END
$$$$
