ZINC03815460
  -OEChem-08230709403D

 65 70  0     1  0  0  0  0  0999 V2000
   -1.2227   -2.0656   -0.3073 C   0  0  0  0  0  0  0  0  0  0  0  0
   -1.2288   -0.6846   -0.2743 C   0  0  0  0  0  0  0  0  0  0  0  0
   -0.0336    0.0106   -0.1604 C   0  0  0  0  0  0  0  0  0  0  0  0
    1.1654   -0.6832   -0.0856 C   0  0  0  0  0  0  0  0  0  0  0  0
    1.1657   -2.0644   -0.1137 C   0  0  0  0  0  0  0  0  0  0  0  0
   -0.0268   -2.7550   -0.2269 C   0  0  0  0  0  0  0  0  0  0  0  0
   -0.0231   -4.2615   -0.2631 C   0  0  1  0  0  0  0  0  0  0  0  0
   -1.0169   -4.6297   -0.0083 H   0  0  0  0  0  0  0  0  0  0  0  0
    0.3374   -4.7240   -1.6496 C   0  0  0  0  0  0  0  0  0  0  0  0
   -0.6521   -4.9645   -2.6116 C   0  0  0  0  0  0  0  0  0  0  0  0
   -2.0171   -4.8116   -2.3083 C   0  0  0  0  0  0  0  0  0  0  0  0
   -2.9526   -5.0537   -3.2648 C   0  0  0  0  0  0  0  0  0  0  0  0
   -2.5772   -5.4538   -4.5512 C   0  0  0  0  0  0  0  0  0  0  0  0
   -1.2610   -5.6122   -4.8800 C   0  0  0  0  0  0  0  0  0  0  0  0
   -0.2688   -5.3712   -3.9159 C   0  0  0  0  0  0  0  0  0  0  0  0
    1.0949   -5.5257   -4.2262 C   0  0  0  0  0  0  0  0  0  0  0  0
    2.0391   -5.3005   -3.2747 C   0  0  0  0  0  0  0  0  0  0  0  0
    1.6696   -4.9140   -1.9798 C   0  0  0  0  0  0  0  0  0  0  0  0
    2.6821   -4.7254   -0.9136 C   0  0  0  0  0  0  0  0  0  0  0  0
    4.0362   -4.6390   -1.2086 C   0  0  0  0  0  0  0  0  0  0  0  0
    4.9490   -4.4459   -0.1836 C   0  0  0  0  0  0  0  0  0  0  0  0
    4.5094   -4.3390    1.1288 C   0  0  0  0  0  0  0  0  0  0  0  0
    3.1626   -4.4311    1.4263 C   0  0  0  0  0  0  0  0  0  0  0  0
    2.2420   -4.6322    0.4123 C   0  0  0  0  0  0  0  0  0  0  0  0
    0.9183   -4.7527    0.6894 O   0  0  0  0  0  0  0  0  0  0  0  0
    6.2770   -4.3618   -0.4638 O   0  0  0  0  0  0  0  0  0  0  0  0
   -3.5347   -5.6884   -5.4864 O   0  0  0  0  0  0  0  0  0  0  0  0
   -0.0370    1.3692   -0.1277 O   0  0  0  0  0  0  0  0  0  0  0  0
    1.2305    2.0185   -0.0090 C   0  0  0  0  0  0  0  0  0  0  0  0
    1.0269    3.5347    0.0112 C   0  0  0  0  0  0  0  0  0  0  0  0
   -0.3393    5.2338    1.0633 C   0  0  0  0  0  0  0  0  0  0  0  0
   -1.2223    5.5307    2.2776 C   0  0  0  0  0  0  0  0  0  0  0  0
   -0.3655    5.4962    3.5461 C   0  0  0  0  0  0  0  0  0  0  0  0
    0.3090    4.1263    3.6600 C   0  0  0  0  0  0  0  0  0  0  0  0
    1.1476    3.8702    2.4057 C   0  0  0  0  0  0  0  0  0  0  0  0
   -2.1528   -2.6073   -0.3956 H   0  0  0  0  0  0  0  0  0  0  0  0
   -2.1631   -0.1466   -0.3376 H   0  0  0  0  0  0  0  0  0  0  0  0
    2.0974   -0.1442   -0.0014 H   0  0  0  0  0  0  0  0  0  0  0  0
    2.0985   -2.6051   -0.0517 H   0  0  0  0  0  0  0  0  0  0  0  0
   -2.3211   -4.5033   -1.3189 H   0  0  0  0  0  0  0  0  0  0  0  0
   -3.9997   -4.9358   -3.0279 H   0  0  0  0  0  0  0  0  0  0  0  0
   -0.9846   -5.9212   -5.8772 H   0  0  0  0  0  0  0  0  0  0  0  0
    1.3916   -5.8239   -5.2209 H   0  0  0  0  0  0  0  0  0  0  0  0
    3.0842   -5.4209   -3.5192 H   0  0  0  0  0  0  0  0  0  0  0  0
    4.3761   -4.7219   -2.2304 H   0  0  0  0  0  0  0  0  0  0  0  0
    5.2245   -4.1824    1.9229 H   0  0  0  0  0  0  0  0  0  0  0  0
    2.8286   -4.3464    2.4499 H   0  0  0  0  0  0  0  0  0  0  0  0
    6.7369   -5.2124   -0.4482 H   0  0  0  0  0  0  0  0  0  0  0  0
   -3.8507   -6.6022   -5.5051 H   0  0  0  0  0  0  0  0  0  0  0  0
    1.7144    1.7044    0.9158 H   0  0  0  0  0  0  0  0  0  0  0  0
    1.8584    1.7475   -0.8578 H   0  0  0  0  0  0  0  0  0  0  0  0
    1.9971    4.0316    0.0118 H   0  0  0  0  0  0  0  0  0  0  0  0
    0.4641    3.8376   -0.8717 H   0  0  0  0  0  0  0  0  0  0  0  0
    0.4379    5.9940    0.9849 H   0  0  0  0  0  0  0  0  0  0  0  0
   -0.9491    5.2435    0.1599 H   0  0  0  0  0  0  0  0  0  0  0  0
   -2.0081    4.7787    2.3486 H   0  0  0  0  0  0  0  0  0  0  0  0
   -1.6718    6.5176    2.1688 H   0  0  0  0  0  0  0  0  0  0  0  0
   -0.9982    5.6643    4.4177 H   0  0  0  0  0  0  0  0  0  0  0  0
    0.3963    6.2740    3.4924 H   0  0  0  0  0  0  0  0  0  0  0  0
   -0.4527    3.3522    3.7528 H   0  0  0  0  0  0  0  0  0  0  0  0
    0.9541    4.1102    4.5385 H   0  0  0  0  0  0  0  0  0  0  0  0
    1.6178    2.8895    2.4772 H   0  0  0  0  0  0  0  0  0  0  0  0
    1.9177    4.6369    2.3211 H   0  0  0  0  0  0  0  0  0  0  0  0
    0.2609    3.8921    1.2230 N   0  3  0  0  0  0  0  0  0  0  0  0
   -0.4903    3.2051    1.3573 H   0  0  0  0  0  0  0  0  0  0  0  0
  1  6  2  0  0  0  0
  1  2  1  0  0  0  0
  1 36  1  0  0  0  0
  2  3  2  0  0  0  0
  2 37  1  0  0  0  0
  3  4  1  0  0  0  0
  3 28  1  0  0  0  0
  4  5  2  0  0  0  0
  4 38  1  0  0  0  0
  5  6  1  0  0  0  0
  5 39  1  0  0  0  0
  6  7  1  0  0  0  0
  7  8  1  0  0  0  0
  7 25  1  0  0  0  0
  7  9  1  0  0  0  0
  9 18  2  0  0  0  0
  9 10  1  0  0  0  0
 10 15  2  0  0  0  0
 10 11  1  0  0  0  0
 11 12  2  0  0  0  0
 11 40  1  0  0  0  0
 12 13  1  0  0  0  0
 12 41  1  0  0  0  0
 13 14  2  0  0  0  0
 13 27  1  0  0  0  0
 14 15  1  0  0  0  0
 14 42  1  0  0  0  0
 15 16  1  0  0  0  0
 16 17  2  0  0  0  0
 16 43  1  0  0  0  0
 17 18  1  0  0  0  0
 17 44  1  0  0  0  0
 18 19  1  0  0  0  0
 19 24  2  0  0  0  0
 19 20  1  0  0  0  0
 20 21  2  0  0  0  0
 20 45  1  0  0  0  0
 21 22  1  0  0  0  0
 21 26  1  0  0  0  0
 22 23  2  0  0  0  0
 22 46  1  0  0  0  0
 23 24  1  0  0  0  0
 23 47  1  0  0  0  0
 24 25  1  0  0  0  0
 26 48  1  0  0  0  0
 27 49  1  0  0  0  0
 28 29  1  0  0  0  0
 29 30  1  0  0  0  0
 29 50  1  0  0  0  0
 29 51  1  0  0  0  0
 30 52  1  0  0  0  0
 30 53  1  0  0  0  0
 30 64  1  0  0  0  0
 31 32  1  0  0  0  0
 31 54  1  0  0  0  0
 31 55  1  0  0  0  0
 31 64  1  0  0  0  0
 32 33  1  0  0  0  0
 32 56  1  0  0  0  0
 32 57  1  0  0  0  0
 33 34  1  0  0  0  0
 33 58  1  0  0  0  0
 33 59  1  0  0  0  0
 34 35  1  0  0  0  0
 34 60  1  0  0  0  0
 34 61  1  0  0  0  0
 35 62  1  0  0  0  0
 35 63  1  0  0  0  0
 35 64  1  0  0  0  0
 64 65  1  0  0  0  0
M  CHG  1  64   1
M  END
$$$$
