ZINC03815450
  -OEChem-08230709403D

 62 66  0     0  0  0  0  0  0999 V2000
   -2.9903    2.4606    3.4164 C   0  0  0  0  0  0  0  0  0  0  0  0
   -3.1814    2.1469    4.7439 C   0  0  0  0  0  0  0  0  0  0  0  0
   -2.4703    1.1027    5.3226 C   0  0  0  0  0  0  0  0  0  0  0  0
   -1.5669    0.3676    4.5647 C   0  0  0  0  0  0  0  0  0  0  0  0
   -1.3725    0.6713    3.2353 C   0  0  0  0  0  0  0  0  0  0  0  0
   -2.0861    1.7207    2.6487 C   0  0  0  0  0  0  0  0  0  0  0  0
   -1.8812    2.0500    1.2263 C   0  0  0  0  0  0  0  0  0  0  0  0
   -1.8534    1.1877    0.1378 C   0  0  0  0  0  0  0  0  0  0  0  0
   -1.6312    1.7659   -1.1899 C   0  0  0  0  0  0  0  0  0  0  0  0
   -1.5630    1.0973   -2.4331 C   0  0  0  0  0  0  0  0  0  0  0  0
   -1.3519    1.7943   -3.5935 C   0  0  0  0  0  0  0  0  0  0  0  0
   -1.1927    3.1771   -3.5850 C   0  0  0  0  0  0  0  0  0  0  0  0
   -1.2495    3.8599   -2.3807 C   0  0  0  0  0  0  0  0  0  0  0  0
   -1.4622    3.1631   -1.2097 C   0  0  0  0  0  0  0  0  0  0  0  0
   -1.5989    3.6485    0.4916 S   0  0  0  0  0  0  0  0  0  0  0  0
   -0.9841    3.8512   -4.7469 O   0  0  0  0  0  0  0  0  0  0  0  0
   -2.0408   -0.2526    0.3116 C   0  0  0  0  0  0  0  0  0  0  0  0
   -1.0727   -0.9841    0.4188 O   0  0  0  0  0  0  0  0  0  0  0  0
   -3.4037   -0.8199    0.3569 C   0  0  0  0  0  0  0  0  0  0  0  0
   -4.5155    0.0264    0.3457 C   0  0  0  0  0  0  0  0  0  0  0  0
   -5.7848   -0.5067    0.3818 C   0  0  0  0  0  0  0  0  0  0  0  0
   -5.9605   -1.8842    0.4415 C   0  0  0  0  0  0  0  0  0  0  0  0
   -4.8571   -2.7292    0.4591 C   0  0  0  0  0  0  0  0  0  0  0  0
   -3.5847   -2.2042    0.4170 C   0  0  0  0  0  0  0  0  0  0  0  0
   -7.2130   -2.4055    0.4832 O   0  0  0  0  0  0  0  0  0  0  0  0
   -8.3018   -1.4894    0.3512 C   0  0  0  0  0  0  0  0  0  0  0  0
   -9.6237   -2.2399    0.5248 C   0  0  0  0  0  0  0  0  0  0  0  0
  -10.6788   -3.8752    1.9646 C   0  0  0  0  0  0  0  0  0  0  0  0
  -10.6325   -4.5051    3.3585 C   0  0  0  0  0  0  0  0  0  0  0  0
  -10.9571   -3.4373    4.4068 C   0  0  0  0  0  0  0  0  0  0  0  0
   -9.9588   -2.2838    4.2751 C   0  0  0  0  0  0  0  0  0  0  0  0
  -10.0246   -1.7183    2.8545 C   0  0  0  0  0  0  0  0  0  0  0  0
   -2.6584    0.8001    6.6329 O   0  0  0  0  0  0  0  0  0  0  0  0
   -3.5404    3.2750    2.9685 H   0  0  0  0  0  0  0  0  0  0  0  0
   -3.8823    2.7158    5.3369 H   0  0  0  0  0  0  0  0  0  0  0  0
   -1.0161   -0.4428    5.0187 H   0  0  0  0  0  0  0  0  0  0  0  0
   -0.6697    0.0999    2.6472 H   0  0  0  0  0  0  0  0  0  0  0  0
   -1.6831    0.0246   -2.4693 H   0  0  0  0  0  0  0  0  0  0  0  0
   -1.3078    1.2612   -4.5317 H   0  0  0  0  0  0  0  0  0  0  0  0
   -1.1274    4.9327   -2.3590 H   0  0  0  0  0  0  0  0  0  0  0  0
   -1.7959    4.1472   -5.1811 H   0  0  0  0  0  0  0  0  0  0  0  0
   -4.3797    1.0970    0.3042 H   0  0  0  0  0  0  0  0  0  0  0  0
   -6.6447    0.1466    0.3683 H   0  0  0  0  0  0  0  0  0  0  0  0
   -4.9978   -3.7990    0.5056 H   0  0  0  0  0  0  0  0  0  0  0  0
   -2.7278   -2.8615    0.4300 H   0  0  0  0  0  0  0  0  0  0  0  0
   -8.2202   -0.7158    1.1147 H   0  0  0  0  0  0  0  0  0  0  0  0
   -8.2720   -1.0296   -0.6366 H   0  0  0  0  0  0  0  0  0  0  0  0
  -10.4550   -1.5561    0.3533 H   0  0  0  0  0  0  0  0  0  0  0  0
   -9.6733   -3.0592   -0.1925 H   0  0  0  0  0  0  0  0  0  0  0  0
  -11.6795   -3.4870    1.7746 H   0  0  0  0  0  0  0  0  0  0  0  0
  -10.4341   -4.6296    1.2168 H   0  0  0  0  0  0  0  0  0  0  0  0
   -9.6359   -4.9059    3.5438 H   0  0  0  0  0  0  0  0  0  0  0  0
  -11.3654   -5.3096    3.4195 H   0  0  0  0  0  0  0  0  0  0  0  0
  -10.8828   -3.8712    5.4040 H   0  0  0  0  0  0  0  0  0  0  0  0
  -11.9685   -3.0637    4.2466 H   0  0  0  0  0  0  0  0  0  0  0  0
   -8.9516   -2.6496    4.4748 H   0  0  0  0  0  0  0  0  0  0  0  0
  -10.2107   -1.5009    4.9904 H   0  0  0  0  0  0  0  0  0  0  0  0
   -9.3048   -0.9061    2.7532 H   0  0  0  0  0  0  0  0  0  0  0  0
  -11.0284   -1.3403    2.6605 H   0  0  0  0  0  0  0  0  0  0  0  0
   -2.1227    1.3292    7.2397 H   0  0  0  0  0  0  0  0  0  0  0  0
   -9.6785   -2.7887    1.8955 N   0  3  0  0  0  0  0  0  0  0  0  0
   -8.7564   -3.1690    2.1394 H   0  0  0  0  0  0  0  0  0  0  0  0
  1  6  2  0  0  0  0
  1  2  1  0  0  0  0
  1 34  1  0  0  0  0
  2  3  2  0  0  0  0
  2 35  1  0  0  0  0
  3  4  1  0  0  0  0
  3 33  1  0  0  0  0
  4  5  2  0  0  0  0
  4 36  1  0  0  0  0
  5  6  1  0  0  0  0
  5 37  1  0  0  0  0
  6  7  1  0  0  0  0
  7 15  1  0  0  0  0
  7  8  2  0  0  0  0
  8  9  1  0  0  0  0
  8 17  1  0  0  0  0
  9 14  2  0  0  0  0
  9 10  1  0  0  0  0
 10 11  2  0  0  0  0
 10 38  1  0  0  0  0
 11 12  1  0  0  0  0
 11 39  1  0  0  0  0
 12 13  2  0  0  0  0
 12 16  1  0  0  0  0
 13 14  1  0  0  0  0
 13 40  1  0  0  0  0
 14 15  1  0  0  0  0
 16 41  1  0  0  0  0
 17 18  2  0  0  0  0
 17 19  1  0  0  0  0
 19 24  2  0  0  0  0
 19 20  1  0  0  0  0
 20 21  2  0  0  0  0
 20 42  1  0  0  0  0
 21 22  1  0  0  0  0
 21 43  1  0  0  0  0
 22 23  2  0  0  0  0
 22 25  1  0  0  0  0
 23 24  1  0  0  0  0
 23 44  1  0  0  0  0
 24 45  1  0  0  0  0
 25 26  1  0  0  0  0
 26 27  1  0  0  0  0
 26 46  1  0  0  0  0
 26 47  1  0  0  0  0
 27 48  1  0  0  0  0
 27 49  1  0  0  0  0
 27 61  1  0  0  0  0
 28 29  1  0  0  0  0
 28 50  1  0  0  0  0
 28 51  1  0  0  0  0
 28 61  1  0  0  0  0
 29 30  1  0  0  0  0
 29 52  1  0  0  0  0
 29 53  1  0  0  0  0
 30 31  1  0  0  0  0
 30 54  1  0  0  0  0
 30 55  1  0  0  0  0
 31 32  1  0  0  0  0
 31 56  1  0  0  0  0
 31 57  1  0  0  0  0
 32 58  1  0  0  0  0
 32 59  1  0  0  0  0
 32 61  1  0  0  0  0
 33 60  1  0  0  0  0
 61 62  1  0  0  0  0
M  CHG  1  61   1
M  END
$$$$
