ZINC03815461
  -OEChem-08230709403D

 62 67  0     1  0  0  0  0  0999 V2000
    2.7593   -3.7649    0.3803 C   0  0  0  0  0  0  0  0  0  0  0  0
    4.1158   -3.7453    0.1196 C   0  0  0  0  0  0  0  0  0  0  0  0
    4.8926   -4.8579    0.4083 C   0  0  0  0  0  0  0  0  0  0  0  0
    4.3057   -5.9855    0.9640 C   0  0  0  0  0  0  0  0  0  0  0  0
    2.9498   -5.9978    1.2285 C   0  0  0  0  0  0  0  0  0  0  0  0
    2.1778   -4.8878    0.9393 C   0  0  0  0  0  0  0  0  0  0  0  0
    0.6989   -4.9042    1.2284 C   0  0  1  0  0  0  0  0  0  0  0  0
    0.3573   -5.9356    1.3161 H   0  0  0  0  0  0  0  0  0  0  0  0
    0.4284   -4.1667    2.5350 C   0  0  0  0  0  0  0  0  0  0  0  0
    0.4633   -4.7501    3.8581 C   0  0  0  0  0  0  0  0  0  0  0  0
    0.7317   -6.1076    4.1768 C   0  0  0  0  0  0  0  0  0  0  0  0
    0.7219   -6.4629    5.4957 C   0  0  0  0  0  0  0  0  0  0  0  0
    0.4626   -5.5669    6.5264 C   0  0  0  0  0  0  0  0  0  0  0  0
    0.1928   -4.2259    6.2592 C   0  0  0  0  0  0  0  0  0  0  0  0
    0.2001   -3.8564    4.9326 C   0  0  0  0  0  0  0  0  0  0  0  0
   -0.0845   -2.3051    4.1364 S   0  0  0  0  0  0  0  0  0  0  0  0
    0.1309   -2.8257    2.4649 C   0  0  0  0  0  0  0  0  0  0  0  0
    0.0406   -2.1061    1.1959 C   0  0  0  0  0  0  0  0  0  0  0  0
   -0.0087   -0.7259    1.0913 C   0  0  0  0  0  0  0  0  0  0  0  0
   -0.0684   -0.1353   -0.1619 C   0  0  0  0  0  0  0  0  0  0  0  0
   -0.0838   -0.9272   -1.3022 C   0  0  0  0  0  0  0  0  0  0  0  0
   -0.0417   -2.3055   -1.2031 C   0  0  0  0  0  0  0  0  0  0  0  0
    0.0058   -2.9120    0.0381 C   0  0  0  0  0  0  0  0  0  0  0  0
   -0.0001   -4.2612    0.1647 O   0  0  0  0  0  0  0  0  0  0  0  0
   -0.1176    1.2191   -0.2737 O   0  0  0  0  0  0  0  0  0  0  0  0
    0.4726   -6.0049    7.8133 O   0  0  0  0  0  0  0  0  0  0  0  0
    6.2261   -4.8435    0.1469 O   0  0  0  0  0  0  0  0  0  0  0  0
    6.7621   -3.6488   -0.4254 C   0  0  0  0  0  0  0  0  0  0  0  0
    8.2663   -3.8197   -0.6468 C   0  0  0  0  0  0  0  0  0  0  0  0
    9.8656   -5.3939   -1.5550 C   0  0  0  0  0  0  0  0  0  0  0  0
   10.0254   -6.5783   -2.5109 C   0  0  0  0  0  0  0  0  0  0  0  0
    9.7338   -6.1164   -3.9413 C   0  0  0  0  0  0  0  0  0  0  0  0
    8.3211   -5.5290   -4.0016 C   0  0  0  0  0  0  0  0  0  0  0  0
    8.2107   -4.3750   -3.0025 C   0  0  0  0  0  0  0  0  0  0  0  0
    2.1533   -2.9009    0.1509 H   0  0  0  0  0  0  0  0  0  0  0  0
    4.5703   -2.8665   -0.3134 H   0  0  0  0  0  0  0  0  0  0  0  0
    4.9083   -6.8528    1.1901 H   0  0  0  0  0  0  0  0  0  0  0  0
    2.4925   -6.8754    1.6611 H   0  0  0  0  0  0  0  0  0  0  0  0
    0.9371   -6.8333    3.4038 H   0  0  0  0  0  0  0  0  0  0  0  0
    0.9249   -7.4926    5.7506 H   0  0  0  0  0  0  0  0  0  0  0  0
   -0.0101   -3.5166    7.0480 H   0  0  0  0  0  0  0  0  0  0  0  0
   -0.0003   -0.1132    1.9806 H   0  0  0  0  0  0  0  0  0  0  0  0
   -0.1251   -0.4620   -2.2760 H   0  0  0  0  0  0  0  0  0  0  0  0
   -0.0501   -2.9102   -2.0979 H   0  0  0  0  0  0  0  0  0  0  0  0
    0.7507    1.6405   -0.3341 H   0  0  0  0  0  0  0  0  0  0  0  0
   -0.3866   -6.3162    8.1295 H   0  0  0  0  0  0  0  0  0  0  0  0
    6.2743   -3.4528   -1.3803 H   0  0  0  0  0  0  0  0  0  0  0  0
    6.5871   -2.8119    0.2506 H   0  0  0  0  0  0  0  0  0  0  0  0
    8.6908   -2.8797   -0.9995 H   0  0  0  0  0  0  0  0  0  0  0  0
    8.7418   -4.1035    0.2920 H   0  0  0  0  0  0  0  0  0  0  0  0
   10.5749   -4.6114   -1.8246 H   0  0  0  0  0  0  0  0  0  0  0  0
   10.0586   -5.7227   -0.5339 H   0  0  0  0  0  0  0  0  0  0  0  0
    9.3259   -7.3669   -2.2334 H   0  0  0  0  0  0  0  0  0  0  0  0
   11.0451   -6.9591   -2.4522 H   0  0  0  0  0  0  0  0  0  0  0  0
    9.8041   -6.9664   -4.6200 H   0  0  0  0  0  0  0  0  0  0  0  0
   10.4575   -5.3554   -4.2330 H   0  0  0  0  0  0  0  0  0  0  0  0
    7.5948   -6.3010   -3.7475 H   0  0  0  0  0  0  0  0  0  0  0  0
    8.1232   -5.1594   -5.0077 H   0  0  0  0  0  0  0  0  0  0  0  0
    7.2017   -3.9638   -3.0327 H   0  0  0  0  0  0  0  0  0  0  0  0
    8.9278   -3.5974   -3.2654 H   0  0  0  0  0  0  0  0  0  0  0  0
    8.4783   -4.8901   -1.6430 N   0  3  0  0  0  0  0  0  0  0  0  0
    7.8306   -5.6620   -1.4458 H   0  0  0  0  0  0  0  0  0  0  0  0
  1  6  2  0  0  0  0
  1  2  1  0  0  0  0
  1 35  1  0  0  0  0
  2  3  2  0  0  0  0
  2 36  1  0  0  0  0
  3  4  1  0  0  0  0
  3 27  1  0  0  0  0
  4  5  2  0  0  0  0
  4 37  1  0  0  0  0
  5  6  1  0  0  0  0
  5 38  1  0  0  0  0
  6  7  1  0  0  0  0
  7  8  1  0  0  0  0
  7 24  1  0  0  0  0
  7  9  1  0  0  0  0
  9 17  2  0  0  0  0
  9 10  1  0  0  0  0
 10 15  2  0  0  0  0
 10 11  1  0  0  0  0
 11 12  2  0  0  0  0
 11 39  1  0  0  0  0
 12 13  1  0  0  0  0
 12 40  1  0  0  0  0
 13 14  2  0  0  0  0
 13 26  1  0  0  0  0
 14 15  1  0  0  0  0
 14 41  1  0  0  0  0
 15 16  1  0  0  0  0
 16 17  1  0  0  0  0
 17 18  1  0  0  0  0
 18 23  2  0  0  0  0
 18 19  1  0  0  0  0
 19 20  2  0  0  0  0
 19 42  1  0  0  0  0
 20 21  1  0  0  0  0
 20 25  1  0  0  0  0
 21 22  2  0  0  0  0
 21 43  1  0  0  0  0
 22 23  1  0  0  0  0
 22 44  1  0  0  0  0
 23 24  1  0  0  0  0
 25 45  1  0  0  0  0
 26 46  1  0  0  0  0
 27 28  1  0  0  0  0
 28 29  1  0  0  0  0
 28 47  1  0  0  0  0
 28 48  1  0  0  0  0
 29 49  1  0  0  0  0
 29 50  1  0  0  0  0
 29 61  1  0  0  0  0
 30 31  1  0  0  0  0
 30 51  1  0  0  0  0
 30 52  1  0  0  0  0
 30 61  1  0  0  0  0
 31 32  1  0  0  0  0
 31 53  1  0  0  0  0
 31 54  1  0  0  0  0
 32 33  1  0  0  0  0
 32 55  1  0  0  0  0
 32 56  1  0  0  0  0
 33 34  1  0  0  0  0
 33 57  1  0  0  0  0
 33 58  1  0  0  0  0
 34 59  1  0  0  0  0
 34 60  1  0  0  0  0
 34 61  1  0  0  0  0
 61 62  1  0  0  0  0
M  CHG  1  61   1
M  END
$$$$
