ZINC03805724
  -OEChem-08230709403D

 31 32  0     1  0  0  0  0  0999 V2000
    2.0476    4.3235    3.3042 C   0  0  0  0  0  0  0  0  0  0  0  0
    2.8231    3.9424    4.3421 C   0  0  0  0  0  0  0  0  0  0  0  0
    4.1247    4.4864    4.4656 C   0  0  0  0  0  0  0  0  0  0  0  0
    4.8408    4.1615    5.3955 O   0  0  0  0  0  0  0  0  0  0  0  0
    4.5640    5.3670    3.5439 N   0  0  0  0  0  0  0  0  0  0  0  0
    5.4821    5.7553    3.6240 H   0  0  0  0  0  0  0  0  0  0  0  0
    3.7719    5.7256    2.5164 C   0  0  0  0  0  0  0  0  0  0  0  0
    4.1816    6.5211    1.6932 O   0  0  0  0  0  0  0  0  0  0  0  0
    2.5332    5.2166    2.3876 N   0  0  0  0  0  0  0  0  0  0  0  0
    1.6940    5.6267    1.2590 C   0  0  1  0  0  0  0  0  0  0  0  0
    1.5898    6.7117    1.2579 H   0  0  0  0  0  0  0  0  0  0  0  0
    2.3418    5.1720   -0.0525 C   0  0  0  0  0  0  0  0  0  0  0  0
    2.4119    3.6420   -0.0709 C   0  0  1  0  0  0  0  0  0  0  0  0
    3.0508    3.2968    0.7419 H   0  0  0  0  0  0  0  0  0  0  0  0
    1.0024    3.0722    0.1089 C   0  0  2  0  0  0  0  0  0  0  0  0
    0.3746    3.3845   -0.7256 H   0  0  0  0  0  0  0  0  0  0  0  0
    0.4459    3.5586    1.3320 O   0  0  0  0  0  0  0  0  0  0  0  0
    0.3122    4.9802    1.3875 C   0  0  0  0  0  0  0  0  0  0  0  0
    1.0713    1.5443    0.1517 C   0  0  0  0  0  0  0  0  0  0  0  0
   -0.2526    1.0091    0.2038 O   0  0  0  0  0  0  0  0  0  0  0  0
    2.9483    3.2036   -1.3208 O   0  0  0  0  0  0  0  0  0  0  0  0
    2.1071    2.5710    5.7548 I   0  0  0  0  0  0  0  0  0  0  0  0
    1.0505    3.9230    3.1960 H   0  0  0  0  0  0  0  0  0  0  0  0
    1.7435    5.5199   -0.8945 H   0  0  0  0  0  0  0  0  0  0  0  0
    3.3479    5.5853   -0.1246 H   0  0  0  0  0  0  0  0  0  0  0  0
   -0.3245    5.3177    0.5696 H   0  0  0  0  0  0  0  0  0  0  0  0
   -0.1361    5.2663    2.3389 H   0  0  0  0  0  0  0  0  0  0  0  0
    1.6252    1.2303    1.0364 H   0  0  0  0  0  0  0  0  0  0  0  0
    1.5764    1.1782   -0.7421 H   0  0  0  0  0  0  0  0  0  0  0  0
   -0.2854    0.0430    0.2329 H   0  0  0  0  0  0  0  0  0  0  0  0
    3.0168    2.2426   -1.4040 H   0  0  0  0  0  0  0  0  0  0  0  0
  1  9  1  0  0  0  0
  1  2  2  0  0  0  0
  1 23  1  0  0  0  0
  2  3  1  0  0  0  0
  2 22  1  0  0  0  0
  3  4  2  0  0  0  0
  3  5  1  0  0  0  0
  5  6  1  0  0  0  0
  5  7  1  0  0  0  0
  7  8  2  0  0  0  0
  7  9  1  0  0  0  0
  9 10  1  0  0  0  0
 10 11  1  0  0  0  0
 10 18  1  0  0  0  0
 10 12  1  0  0  0  0
 12 13  1  0  0  0  0
 12 24  1  0  0  0  0
 12 25  1  0  0  0  0
 13 14  1  0  0  0  0
 13 15  1  0  0  0  0
 13 21  1  0  0  0  0
 15 16  1  0  0  0  0
 15 17  1  0  0  0  0
 15 19  1  0  0  0  0
 17 18  1  0  0  0  0
 18 26  1  0  0  0  0
 18 27  1  0  0  0  0
 19 20  1  0  0  0  0
 19 28  1  0  0  0  0
 19 29  1  0  0  0  0
 20 30  1  0  0  0  0
 21 31  1  0  0  0  0
M  END
$$$$
