ZINC03792176
  -OEChem-08230709403D

 27 28  0     1  0  0  0  0  0999 V2000
   -1.2160    2.1225    0.0194 C   0  0  0  0  0  0  0  0  0  0  0  0
   -1.2339    3.4728    0.0320 C   0  0  0  0  0  0  0  0  0  0  0  0
   -0.0059    4.1781    0.0241 C   0  0  0  0  0  0  0  0  0  0  0  0
    0.0034    5.3959    0.0302 O   0  0  0  0  0  0  0  0  0  0  0  0
    1.1529    3.4889    0.0093 N   0  0  0  0  0  0  0  0  0  0  0  0
    2.0241    3.9797    0.0032 H   0  0  0  0  0  0  0  0  0  0  0  0
    1.1418    2.1430    0.0027 C   0  0  0  0  0  0  0  0  0  0  0  0
    2.1947    1.5351   -0.0098 O   0  0  0  0  0  0  0  0  0  0  0  0
   -0.0178    1.4608    0.0101 N   0  0  0  0  0  0  0  0  0  0  0  0
    0.0021   -0.0041    0.0020 C   0  0  1  0  0  0  0  0  0  0  0  0
    1.0168   -0.3722   -0.1496 H   0  0  0  0  0  0  0  0  0  0  0  0
   -0.5910   -0.5652    1.3195 C   0  0  0  0  0  0  0  0  0  0  0  0
   -1.0676   -1.9731    0.8868 C   0  0  1  0  0  0  0  0  0  0  0  0
   -2.0301   -2.2067    1.3420 H   0  0  0  0  0  0  0  0  0  0  0  0
   -1.2058   -1.8710   -0.6446 C   0  0  2  0  0  0  0  0  0  0  0  0
   -0.5124   -2.5605   -1.1261 H   0  0  0  0  0  0  0  0  0  0  0  0
   -0.8859   -0.5190   -1.0133 O   0  0  0  0  0  0  0  0  0  0  0  0
   -2.6406   -2.2014   -1.0606 C   0  0  0  0  0  0  0  0  0  0  0  0
   -2.7312   -2.2182   -2.4866 O   0  0  0  0  0  0  0  0  0  0  0  0
   -0.1153   -2.9392    1.2292 F   0  0  0  0  0  0  0  0  0  0  0  0
   -3.0539    4.5102    0.0549 I   0  0  0  0  0  0  0  0  0  0  0  0
   -2.1424    1.5675    0.0211 H   0  0  0  0  0  0  0  0  0  0  0  0
    0.1746   -0.6342    2.0923 H   0  0  0  0  0  0  0  0  0  0  0  0
   -1.4297    0.0428    1.6586 H   0  0  0  0  0  0  0  0  0  0  0  0
   -2.9168   -3.1798   -0.6674 H   0  0  0  0  0  0  0  0  0  0  0  0
   -3.3176   -1.4456   -0.6624 H   0  0  0  0  0  0  0  0  0  0  0  0
   -3.6150   -2.4215   -2.8222 H   0  0  0  0  0  0  0  0  0  0  0  0
  1  9  1  0  0  0  0
  1  2  2  0  0  0  0
  1 22  1  0  0  0  0
  2  3  1  0  0  0  0
  2 21  1  0  0  0  0
  3  4  2  0  0  0  0
  3  5  1  0  0  0  0
  5  6  1  0  0  0  0
  5  7  1  0  0  0  0
  7  8  2  0  0  0  0
  7  9  1  0  0  0  0
  9 10  1  0  0  0  0
 10 11  1  0  0  0  0
 10 17  1  0  0  0  0
 10 12  1  0  0  0  0
 12 13  1  0  0  0  0
 12 23  1  0  0  0  0
 12 24  1  0  0  0  0
 13 14  1  0  0  0  0
 13 15  1  0  0  0  0
 13 20  1  0  0  0  0
 15 16  1  0  0  0  0
 15 17  1  0  0  0  0
 15 18  1  0  0  0  0
 18 19  1  0  0  0  0
 18 25  1  0  0  0  0
 18 26  1  0  0  0  0
 19 27  1  0  0  0  0
M  END
$$$$
