ZINC03834166
  -OEChem-08230709403D

 35 37  0     1  0  0  0  0  0999 V2000
    2.2281    0.7916   -0.0150 C   0  0  0  0  0  0  0  0  0  0  0  0
    1.3451   -0.2677   -0.0122 C   0  0  0  0  0  0  0  0  0  0  0  0
    0.0021   -0.0041    0.0020 C   0  0  0  0  0  0  0  0  0  0  0  0
   -0.0221    1.7811    0.0118 S   0  0  0  0  0  0  0  0  0  0  0  0
    1.7414    2.0579   -0.0035 C   0  0  0  0  0  0  0  0  0  0  0  0
   -1.1337   -0.9516    0.0074 C   0  0  0  0  0  0  0  0  0  0  0  0
   -1.9746   -1.0265    1.0846 C   0  0  0  0  0  0  0  0  0  0  0  0
   -3.0124   -1.9065    1.0537 N   0  0  0  0  0  0  0  0  0  0  0  0
   -3.2020   -2.6985   -0.0168 C   0  0  0  0  0  0  0  0  0  0  0  0
   -4.1355   -3.4836   -0.0210 O   0  0  0  0  0  0  0  0  0  0  0  0
   -2.3907   -2.6436   -1.0730 N   0  0  0  0  0  0  0  0  0  0  0  0
   -1.3689   -1.8045   -1.1014 C   0  0  0  0  0  0  0  0  0  0  0  0
   -0.5546   -1.7601   -2.1787 O   0  0  0  0  0  0  0  0  0  0  0  0
   -3.9250   -1.9960    2.1962 C   0  0  1  0  0  0  0  0  0  0  0  0
   -3.5736   -1.3644    3.0121 H   0  0  0  0  0  0  0  0  0  0  0  0
   -5.3541   -1.5864    1.7762 C   0  0  0  0  0  0  0  0  0  0  0  0
   -6.2676   -2.5464    2.5741 C   0  0  2  0  0  0  0  0  0  0  0  0
   -6.9195   -1.9857    3.2440 H   0  0  0  0  0  0  0  0  0  0  0  0
   -5.2815   -3.4182    3.3828 C   0  0  2  0  0  0  0  0  0  0  0  0
   -5.1400   -3.0043    4.3812 H   0  0  0  0  0  0  0  0  0  0  0  0
   -4.0458   -3.3660    2.6371 O   0  0  0  0  0  0  0  0  0  0  0  0
   -5.7910   -4.8583    3.4692 C   0  0  0  0  0  0  0  0  0  0  0  0
   -4.8874   -5.6369    4.2561 O   0  0  0  0  0  0  0  0  0  0  0  0
   -7.0412   -3.3570    1.6872 O   0  0  0  0  0  0  0  0  0  0  0  0
    3.2936    0.6153   -0.0261 H   0  0  0  0  0  0  0  0  0  0  0  0
    1.7062   -1.2854   -0.0208 H   0  0  0  0  0  0  0  0  0  0  0  0
    2.2818    2.9930   -0.0042 H   0  0  0  0  0  0  0  0  0  0  0  0
   -1.8189   -0.3934    1.9456 H   0  0  0  0  0  0  0  0  0  0  0  0
   -2.5569   -3.2450   -1.8544 H   0  0  0  0  0  0  0  0  0  0  0  0
   -5.5514   -0.5507    2.0527 H   0  0  0  0  0  0  0  0  0  0  0  0
   -5.4932   -1.7299    0.7047 H   0  0  0  0  0  0  0  0  0  0  0  0
   -6.7774   -4.8675    3.9330 H   0  0  0  0  0  0  0  0  0  0  0  0
   -5.8569   -5.2811    2.4667 H   0  0  0  0  0  0  0  0  0  0  0  0
   -5.1482   -6.5629    4.3536 H   0  0  0  0  0  0  0  0  0  0  0  0
   -7.6773   -2.8604    1.1544 H   0  0  0  0  0  0  0  0  0  0  0  0
  1  5  2  0  0  0  0
  1  2  1  0  0  0  0
  1 25  1  0  0  0  0
  2  3  2  0  0  0  0
  2 26  1  0  0  0  0
  3  4  1  0  0  0  0
  3  6  1  0  0  0  0
  4  5  1  0  0  0  0
  5 27  1  0  0  0  0
  6 12  1  0  0  0  0
  6  7  2  0  0  0  0
  7  8  1  0  0  0  0
  7 28  1  0  0  0  0
  8 14  1  0  0  0  0
  8  9  1  0  0  0  0
  9 10  2  0  0  0  0
  9 11  1  0  0  0  0
 11 29  1  0  0  0  0
 11 12  1  0  0  0  0
 12 13  2  0  0  0  0
 14 15  1  0  0  0  0
 14 21  1  0  0  0  0
 14 16  1  0  0  0  0
 16 17  1  0  0  0  0
 16 30  1  0  0  0  0
 16 31  1  0  0  0  0
 17 18  1  0  0  0  0
 17 19  1  0  0  0  0
 17 24  1  0  0  0  0
 19 20  1  0  0  0  0
 19 21  1  0  0  0  0
 19 22  1  0  0  0  0
 22 23  1  0  0  0  0
 22 32  1  0  0  0  0
 22 33  1  0  0  0  0
 23 34  1  0  0  0  0
 24 35  1  0  0  0  0
M  END
$$$$
