ZINC03815588
  -OEChem-08230709403D

 50 54  0     0  0  0  0  0  0999 V2000
    1.1577   11.3214   -3.4126 C   0  0  0  0  0  0  0  0  0  0  0  0
    2.2273   12.0108   -2.8696 C   0  0  0  0  0  0  0  0  0  0  0  0
    3.0682   11.3906   -1.9635 C   0  0  0  0  0  0  0  0  0  0  0  0
    2.8412   10.0808   -1.5919 C   0  0  0  0  0  0  0  0  0  0  0  0
    1.7683    9.3801   -2.1393 C   0  0  0  0  0  0  0  0  0  0  0  0
    0.9241   10.0101   -3.0521 C   0  0  0  0  0  0  0  0  0  0  0  0
    1.5220    7.9707   -1.7475 C   0  0  0  0  0  0  0  0  0  0  0  0
    2.4783    6.9935   -2.0191 C   0  0  0  0  0  0  0  0  0  0  0  0
    2.2504    5.6846   -1.6501 C   0  0  0  0  0  0  0  0  0  0  0  0
    1.0636    5.3362   -1.0171 C   0  0  0  0  0  0  0  0  0  0  0  0
    0.1066    6.3094   -0.7445 C   0  0  0  0  0  0  0  0  0  0  0  0
    0.3337    7.6218   -1.1077 C   0  0  0  0  0  0  0  0  0  0  0  0
   -1.0443    5.9698   -0.1239 F   0  0  0  0  0  0  0  0  0  0  0  0
    0.8329    4.0074   -0.6484 N   0  0  0  0  0  0  0  0  0  0  0  0
    1.3066    3.0038   -1.4132 C   0  0  0  0  0  0  0  0  0  0  0  0
    2.0070    3.2515   -2.3756 O   0  0  0  0  0  0  0  0  0  0  0  0
    0.9749    1.6035   -1.0823 C   0  0  0  0  0  0  0  0  0  0  0  0
    0.1459    1.1858   -0.1425 N   0  0  0  0  0  0  0  0  0  0  0  0
    0.1299   -0.1018   -0.1723 N   0  0  0  0  0  0  0  0  0  0  0  0
    0.9177   -0.5274   -1.0960 N   0  0  0  0  0  0  0  0  0  0  0  0
    1.4624    0.4825   -1.6860 N   0  0  0  0  0  0  0  0  0  0  0  0
    2.3793    0.4360   -2.7444 C   0  0  0  0  0  0  0  0  0  0  0  0
    2.1524   -0.4164   -3.8234 C   0  0  0  0  0  0  0  0  0  0  0  0
    3.0420   -0.4675   -4.8727 C   0  0  0  0  0  0  0  0  0  0  0  0
    4.1837    0.3258   -4.8565 C   0  0  0  0  0  0  0  0  0  0  0  0
    4.4188    1.1813   -3.7692 C   0  0  0  0  0  0  0  0  0  0  0  0
    3.5101    1.2321   -2.7128 C   0  0  0  0  0  0  0  0  0  0  0  0
    5.6870    1.8721   -4.0504 C   0  0  0  0  0  0  0  0  0  0  0  0
    6.1187    1.4341   -5.2004 N   0  0  0  0  0  0  0  0  0  0  0  0
    5.2114    0.4817   -5.7170 O   0  0  0  0  0  0  0  0  0  0  0  0
    6.3080    2.8140   -3.2425 N   0  0  0  0  0  0  0  0  0  0  0  0
    3.9092    9.2945   -0.4318 S   0  0  0  0  0  0  0  0  0  0  0  0
    4.3337    8.0777   -1.0305 O   0  0  0  0  0  0  0  0  0  0  0  0
    4.8258   10.2853    0.0126 O   0  0  0  0  0  0  0  0  0  0  0  0
    2.9872    8.8802    0.8799 N   0  0  0  0  0  0  0  0  0  0  0  0
    0.5043   11.8106   -4.1197 H   0  0  0  0  0  0  0  0  0  0  0  0
    2.4060   13.0372   -3.1540 H   0  0  0  0  0  0  0  0  0  0  0  0
    3.9019   11.9334   -1.5429 H   0  0  0  0  0  0  0  0  0  0  0  0
    0.0885    9.4731   -3.4761 H   0  0  0  0  0  0  0  0  0  0  0  0
    3.3996    7.2623   -2.5144 H   0  0  0  0  0  0  0  0  0  0  0  0
    2.9936    4.9287   -1.8568 H   0  0  0  0  0  0  0  0  0  0  0  0
   -0.4087    8.3773   -0.8967 H   0  0  0  0  0  0  0  0  0  0  0  0
    0.3318    3.8078    0.1578 H   0  0  0  0  0  0  0  0  0  0  0  0
    1.2697   -1.0384   -3.8385 H   0  0  0  0  0  0  0  0  0  0  0  0
    2.8555   -1.1279   -5.7067 H   0  0  0  0  0  0  0  0  0  0  0  0
    3.6879    1.8897   -1.8747 H   0  0  0  0  0  0  0  0  0  0  0  0
    5.9026    3.0735   -2.4003 H   0  0  0  0  0  0  0  0  0  0  0  0
    7.1475    3.2130   -3.5199 H   0  0  0  0  0  0  0  0  0  0  0  0
    2.0394    9.0862    0.8910 H   0  0  0  0  0  0  0  0  0  0  0  0
    3.3949    8.4315    1.6370 H   0  0  0  0  0  0  0  0  0  0  0  0
  1  6  2  0  0  0  0
  1  2  1  0  0  0  0
  1 36  1  0  0  0  0
  2  3  2  0  0  0  0
  2 37  1  0  0  0  0
  3  4  1  0  0  0  0
  3 38  1  0  0  0  0
  4  5  2  0  0  0  0
  4 32  1  0  0  0  0
  5  6  1  0  0  0  0
  5  7  1  0  0  0  0
  6 39  1  0  0  0  0
  7 12  2  0  0  0  0
  7  8  1  0  0  0  0
  8  9  2  0  0  0  0
  8 40  1  0  0  0  0
  9 10  1  0  0  0  0
  9 41  1  0  0  0  0
 10 11  2  0  0  0  0
 10 14  1  0  0  0  0
 11 12  1  0  0  0  0
 11 13  1  0  0  0  0
 12 42  1  0  0  0  0
 14 15  1  0  0  0  0
 14 43  1  0  0  0  0
 15 16  2  0  0  0  0
 15 17  1  0  0  0  0
 17 21  1  0  0  0  0
 17 18  2  0  0  0  0
 18 19  1  0  0  0  0
 19 20  2  0  0  0  0
 20 21  1  0  0  0  0
 21 22  1  0  0  0  0
 22 27  2  0  0  0  0
 22 23  1  0  0  0  0
 23 24  2  0  0  0  0
 23 44  1  0  0  0  0
 24 25  1  0  0  0  0
 24 45  1  0  0  0  0
 25 30  1  0  0  0  0
 25 26  2  0  0  0  0
 26 27  1  0  0  0  0
 26 28  1  0  0  0  0
 27 46  1  0  0  0  0
 28 29  2  0  0  0  0
 28 31  1  0  0  0  0
 29 30  1  0  0  0  0
 31 47  1  0  0  0  0
 31 48  1  0  0  0  0
 32 33  2  0  0  0  0
 32 34  2  0  0  0  0
 32 35  1  0  0  0  0
 35 49  1  0  0  0  0
 35 50  1  0  0  0  0
M  END
$$$$
