ZINC03791107
  -OEChem-08230709403D

 62 65  0     1  0  0  0  0  0999 V2000
   -5.0940    5.9928   -0.1468 C   0  0  0  0  0  0  0  0  0  0  0  0
   -5.1629    5.2111    1.1398 C   0  0  0  0  0  0  0  0  0  0  0  0
   -6.8225    6.1036    1.8878 H   0  0  0  0  0  0  0  0  0  0  0  0
   -4.2222    4.2525    1.4101 N   0  0  0  0  0  0  0  0  0  0  0  0
   -3.0946    3.8842    0.5348 C   0  0  0  0  0  0  0  0  0  0  0  0
   -2.7351    2.4275    0.9390 C   0  0  0  0  0  0  0  0  0  0  0  0
   -2.9628    2.4709    2.4731 C   0  0  1  0  0  0  0  0  0  0  0  0
   -2.0884    2.8773    2.9814 H   0  0  0  0  0  0  0  0  0  0  0  0
   -4.1706    3.4199    2.6209 C   0  0  0  0  0  0  0  0  0  0  0  0
   -3.2776    1.1702    2.9744 O   0  0  0  0  0  0  0  0  0  0  0  0
   -2.2551    0.4498    3.5061 C   0  0  0  0  0  0  0  0  0  0  0  0
   -2.5091   -0.7673    4.1213 C   0  0  0  0  0  0  0  0  0  0  0  0
   -1.4673   -1.5006    4.6556 C   0  0  0  0  0  0  0  0  0  0  0  0
   -0.1739   -1.0166    4.5882 C   0  0  0  0  0  0  0  0  0  0  0  0
    0.0812    0.1988    3.9805 C   0  0  0  0  0  0  0  0  0  0  0  0
   -0.9564    0.9330    3.4393 C   0  0  0  0  0  0  0  0  0  0  0  0
    0.9599   -1.8155    5.1777 C   0  0  2  0  0  0  0  0  0  0  0  0
    1.8974   -1.2793    5.0301 H   0  0  0  0  0  0  0  0  0  0  0  0
    1.0374   -3.1780    4.4861 C   0  0  0  0  0  0  0  0  0  0  0  0
    2.2441   -3.9283    4.9880 C   0  0  0  0  0  0  0  0  0  0  0  0
    3.4637   -3.7873    4.3284 C   0  0  0  0  0  0  0  0  0  0  0  0
    4.5740   -4.4469    4.7588 C   0  0  0  0  0  0  0  0  0  0  0  0
    4.4920   -5.2921    5.8781 C   0  0  0  0  0  0  0  0  0  0  0  0
    5.6203   -5.9910    6.3441 C   0  0  0  0  0  0  0  0  0  0  0  0
    5.5167   -6.8018    7.4281 C   0  0  0  0  0  0  0  0  0  0  0  0
    4.2909   -6.9566    8.0981 C   0  0  0  0  0  0  0  0  0  0  0  0
    3.1632   -6.2825    7.6648 C   0  0  0  0  0  0  0  0  0  0  0  0
    3.2500   -5.4399    6.5461 C   0  0  0  0  0  0  0  0  0  0  0  0
    2.1259   -4.7380    6.0754 C   0  0  0  0  0  0  0  0  0  0  0  0
    4.2060   -7.8478    9.2769 C   0  0  0  0  0  0  0  0  0  0  0  0
    2.9162   -8.5565   10.6840 H   0  0  0  0  0  0  0  0  0  0  0  0
    5.3260   -8.5218    9.7133 N   0  0  0  0  0  0  0  0  0  0  0  0
    0.7213   -2.0136    6.6524 C   0  0  0  0  0  0  0  0  0  0  0  0
   -0.2680   -1.5533    7.1715 O   0  0  0  0  0  0  0  0  0  0  0  0
   -4.2355    5.6588   -0.7293 H   0  0  0  0  0  0  0  0  0  0  0  0
   -6.0071    5.8309   -0.7197 H   0  0  0  0  0  0  0  0  0  0  0  0
   -4.9896    7.0542    0.0782 H   0  0  0  0  0  0  0  0  0  0  0  0
   -3.3980    3.9234   -0.5114 H   0  0  0  0  0  0  0  0  0  0  0  0
   -2.2473    4.5476    0.7083 H   0  0  0  0  0  0  0  0  0  0  0  0
   -1.6954    2.1989    0.7046 H   0  0  0  0  0  0  0  0  0  0  0  0
   -3.4073    1.7128    0.4642 H   0  0  0  0  0  0  0  0  0  0  0  0
   -5.0890    2.8399    2.7113 H   0  0  0  0  0  0  0  0  0  0  0  0
   -4.0405    4.0515    3.4997 H   0  0  0  0  0  0  0  0  0  0  0  0
   -3.5198   -1.1436    4.1785 H   0  0  0  0  0  0  0  0  0  0  0  0
   -1.6640   -2.4504    5.1307 H   0  0  0  0  0  0  0  0  0  0  0  0
    1.0924    0.5744    3.9285 H   0  0  0  0  0  0  0  0  0  0  0  0
   -0.7567    1.8826    2.9651 H   0  0  0  0  0  0  0  0  0  0  0  0
    0.1361   -3.7497    4.7076 H   0  0  0  0  0  0  0  0  0  0  0  0
    1.1209   -3.0345    3.4088 H   0  0  0  0  0  0  0  0  0  0  0  0
    3.5298   -3.1419    3.4650 H   0  0  0  0  0  0  0  0  0  0  0  0
    5.5130   -4.3241    4.2395 H   0  0  0  0  0  0  0  0  0  0  0  0
    6.5692   -5.8823    5.8397 H   0  0  0  0  0  0  0  0  0  0  0  0
    6.3875   -7.3351    7.7799 H   0  0  0  0  0  0  0  0  0  0  0  0
    2.2236   -6.4040    8.1832 H   0  0  0  0  0  0  0  0  0  0  0  0
    1.1737   -4.8407    6.5746 H   0  0  0  0  0  0  0  0  0  0  0  0
    6.1699   -8.4121    9.2480 H   0  0  0  0  0  0  0  0  0  0  0  0
    5.2703   -9.1058   10.4858 H   0  0  0  0  0  0  0  0  0  0  0  0
   -6.0995    5.4010    2.0429 N   0  3  0  0  0  0  0  0  0  0  0  0
   -6.1030    4.8422    2.9042 H   0  0  0  0  0  0  0  0  0  0  0  0
    3.0255   -7.9545    9.8677 N   0  3  0  0  0  0  0  0  0  0  0  0
    2.2203   -7.4314    9.5042 H   0  0  0  0  0  0  0  0  0  0  0  0
    1.6076   -2.7013    7.3893 O   0  5  0  0  0  0  0  0  0  0  0  0
  1  2  1  0  0  0  0
  1 35  1  0  0  0  0
  1 36  1  0  0  0  0
  1 37  1  0  0  0  0
  2  4  1  0  0  0  0
  2 58  2  0  0  0  0
  3 58  1  0  0  0  0
  4  9  1  0  0  0  0
  4  5  1  0  0  0  0
  5  6  1  0  0  0  0
  5 38  1  0  0  0  0
  5 39  1  0  0  0  0
  6  7  1  0  0  0  0
  6 40  1  0  0  0  0
  6 41  1  0  0  0  0
  7  8  1  0  0  0  0
  7  9  1  0  0  0  0
  7 10  1  0  0  0  0
  9 42  1  0  0  0  0
  9 43  1  0  0  0  0
 10 11  1  0  0  0  0
 11 16  2  0  0  0  0
 11 12  1  0  0  0  0
 12 13  2  0  0  0  0
 12 44  1  0  0  0  0
 13 14  1  0  0  0  0
 13 45  1  0  0  0  0
 14 15  2  0  0  0  0
 14 17  1  0  0  0  0
 15 16  1  0  0  0  0
 15 46  1  0  0  0  0
 16 47  1  0  0  0  0
 17 18  1  0  0  0  0
 17 19  1  0  0  0  0
 17 33  1  0  0  0  0
 19 20  1  0  0  0  0
 19 48  1  0  0  0  0
 19 49  1  0  0  0  0
 20 29  2  0  0  0  0
 20 21  1  0  0  0  0
 21 22  2  0  0  0  0
 21 50  1  0  0  0  0
 22 23  1  0  0  0  0
 22 51  1  0  0  0  0
 23 28  2  0  0  0  0
 23 24  1  0  0  0  0
 24 25  2  0  0  0  0
 24 52  1  0  0  0  0
 25 26  1  0  0  0  0
 25 53  1  0  0  0  0
 26 27  2  0  0  0  0
 26 30  1  0  0  0  0
 27 28  1  0  0  0  0
 27 54  1  0  0  0  0
 28 29  1  0  0  0  0
 29 55  1  0  0  0  0
 30 32  1  0  0  0  0
 30 60  2  0  0  0  0
 31 60  1  0  0  0  0
 32 56  1  0  0  0  0
 32 57  1  0  0  0  0
 33 34  2  0  0  0  0
 33 62  1  0  0  0  0
 58 59  1  0  0  0  0
 60 61  1  0  0  0  0
M  CHG  3  58   1  60   1  62  -1
M  END
$$$$
