ZINC04631204
  -OEChem-08230709403D

 63 67  0     0  0  0  0  0  0999 V2000
   -4.5687   14.7291   -7.7458 C   0  0  0  0  0  0  0  0  0  0  0  0
   -5.4653   14.4484   -6.7162 C   0  0  0  0  0  0  0  0  0  0  0  0
   -5.0800   13.7246   -5.6300 C   0  0  0  0  0  0  0  0  0  0  0  0
   -3.7589   13.2518   -5.5419 C   0  0  0  0  0  0  0  0  0  0  0  0
   -3.3268   12.5023   -4.4356 C   0  0  0  0  0  0  0  0  0  0  0  0
   -2.0248   12.0568   -4.3850 C   0  0  0  0  0  0  0  0  0  0  0  0
   -1.1295   12.3480   -5.4211 C   0  0  0  0  0  0  0  0  0  0  0  0
   -1.5249   13.0667   -6.5047 C   0  0  0  0  0  0  0  0  0  0  0  0
   -2.8471   13.5373   -6.5890 C   0  0  0  0  0  0  0  0  0  0  0  0
   -3.2823   14.2877   -7.6947 C   0  0  0  0  0  0  0  0  0  0  0  0
   -1.5910   11.3106   -3.2844 N   0  0  0  0  0  0  0  0  0  0  0  0
   -0.7070   10.3079   -3.4564 C   0  0  0  0  0  0  0  0  0  0  0  0
   -0.2244   10.1059   -4.5506 O   0  0  0  0  0  0  0  0  0  0  0  0
   -0.3184    9.4376   -2.2891 C   0  0  0  0  0  0  0  0  0  0  0  0
    0.6480    8.4295   -2.7320 N   0  0  0  0  0  0  0  0  0  0  0  0
    1.1396    7.5348   -1.8519 C   0  0  0  0  0  0  0  0  0  0  0  0
    0.8524    7.6204   -0.6728 O   0  0  0  0  0  0  0  0  0  0  0  0
    2.0222    6.4562   -2.3167 C   0  0  0  0  0  0  0  0  0  0  0  0
    2.4967    6.3159   -3.5828 C   0  0  0  0  0  0  0  0  0  0  0  0
    3.3055    5.1562   -3.6142 C   0  0  0  0  0  0  0  0  0  0  0  0
    3.2994    4.6136   -2.3145 C   0  0  0  0  0  0  0  0  0  0  0  0
    2.5031    5.4209   -1.5362 N   0  0  0  0  0  0  0  0  0  0  0  0
    2.2168    5.2205   -0.1135 C   0  0  0  0  0  0  0  0  0  0  0  0
    1.0480    4.2810    0.0362 C   0  0  0  0  0  0  0  0  0  0  0  0
    1.2556    2.9131    0.0222 C   0  0  0  0  0  0  0  0  0  0  0  0
    0.1880    2.0446    0.1595 C   0  0  0  0  0  0  0  0  0  0  0  0
   -1.0925    2.5381    0.3053 C   0  0  0  0  0  0  0  0  0  0  0  0
   -1.3074    3.9157    0.3259 C   0  0  0  0  0  0  0  0  0  0  0  0
   -0.2267    4.7866    0.1875 C   0  0  0  0  0  0  0  0  0  0  0  0
   -2.6782    4.4520    0.4886 C   0  0  0  0  0  0  0  0  0  0  0  0
   -3.7372    6.1868    0.6040 H   0  0  0  0  0  0  0  0  0  0  0  0
   -3.7437    3.5893    0.6252 N   0  0  0  0  0  0  0  0  0  0  0  0
    4.0268    3.4570   -2.0498 C   0  0  0  0  0  0  0  0  0  0  0  0
    4.7500    2.8512   -3.0538 C   0  0  0  0  0  0  0  0  0  0  0  0
    4.7642    3.3812   -4.3359 C   0  0  0  0  0  0  0  0  0  0  0  0
    4.0452    4.5233   -4.6281 C   0  0  0  0  0  0  0  0  0  0  0  0
    4.0635    5.0394   -5.8837 O   0  0  0  0  0  0  0  0  0  0  0  0
   -4.8997   15.3059   -8.5968 H   0  0  0  0  0  0  0  0  0  0  0  0
   -6.4805   14.8108   -6.7812 H   0  0  0  0  0  0  0  0  0  0  0  0
   -5.7853   13.5151   -4.8395 H   0  0  0  0  0  0  0  0  0  0  0  0
   -4.0105   12.2774   -3.6303 H   0  0  0  0  0  0  0  0  0  0  0  0
   -0.1112   11.9931   -5.3602 H   0  0  0  0  0  0  0  0  0  0  0  0
   -0.8234   13.2799   -7.2976 H   0  0  0  0  0  0  0  0  0  0  0  0
   -2.5990   14.5131   -8.5002 H   0  0  0  0  0  0  0  0  0  0  0  0
   -1.9262   11.5149   -2.3974 H   0  0  0  0  0  0  0  0  0  0  0  0
   -1.2052    8.9420   -1.8941 H   0  0  0  0  0  0  0  0  0  0  0  0
    0.1307   10.0538   -1.5101 H   0  0  0  0  0  0  0  0  0  0  0  0
    0.9339    8.4059   -3.6585 H   0  0  0  0  0  0  0  0  0  0  0  0
    2.2926    6.9724   -4.4156 H   0  0  0  0  0  0  0  0  0  0  0  0
    1.9742    6.1783    0.3467 H   0  0  0  0  0  0  0  0  0  0  0  0
    3.0916    4.7931    0.3766 H   0  0  0  0  0  0  0  0  0  0  0  0
    2.2553    2.5221   -0.0961 H   0  0  0  0  0  0  0  0  0  0  0  0
    0.3562    0.9778    0.1481 H   0  0  0  0  0  0  0  0  0  0  0  0
   -1.9259    1.8590    0.4080 H   0  0  0  0  0  0  0  0  0  0  0  0
   -0.3875    5.8545    0.1984 H   0  0  0  0  0  0  0  0  0  0  0  0
   -3.5960    2.6306    0.6148 H   0  0  0  0  0  0  0  0  0  0  0  0
   -4.6416    3.9405    0.7318 H   0  0  0  0  0  0  0  0  0  0  0  0
    4.0240    3.0337   -1.0562 H   0  0  0  0  0  0  0  0  0  0  0  0
    5.3123    1.9542   -2.8404 H   0  0  0  0  0  0  0  0  0  0  0  0
    5.3363    2.8941   -5.1116 H   0  0  0  0  0  0  0  0  0  0  0  0
    4.7747    5.6764   -6.0368 H   0  0  0  0  0  0  0  0  0  0  0  0
   -2.8129    5.7692    0.4947 N   0  3  0  0  0  0  0  0  0  0  0  0
   -1.9871    6.3702    0.3895 H   0  0  0  0  0  0  0  0  0  0  0  0
  1 10  2  0  0  0  0
  1  2  1  0  0  0  0
  1 38  1  0  0  0  0
  2  3  2  0  0  0  0
  2 39  1  0  0  0  0
  3  4  1  0  0  0  0
  3 40  1  0  0  0  0
  4  9  2  0  0  0  0
  4  5  1  0  0  0  0
  5  6  2  0  0  0  0
  5 41  1  0  0  0  0
  6  7  1  0  0  0  0
  6 11  1  0  0  0  0
  7  8  2  0  0  0  0
  7 42  1  0  0  0  0
  8  9  1  0  0  0  0
  8 43  1  0  0  0  0
  9 10  1  0  0  0  0
 10 44  1  0  0  0  0
 11 12  1  0  0  0  0
 11 45  1  0  0  0  0
 12 13  2  0  0  0  0
 12 14  1  0  0  0  0
 14 15  1  0  0  0  0
 14 46  1  0  0  0  0
 14 47  1  0  0  0  0
 15 16  1  0  0  0  0
 15 48  1  0  0  0  0
 16 17  2  0  0  0  0
 16 18  1  0  0  0  0
 18 22  1  0  0  0  0
 18 19  2  0  0  0  0
 19 20  1  0  0  0  0
 19 49  1  0  0  0  0
 20 36  2  0  0  0  0
 20 21  1  0  0  0  0
 21 22  1  0  0  0  0
 21 33  2  0  0  0  0
 22 23  1  0  0  0  0
 23 24  1  0  0  0  0
 23 50  1  0  0  0  0
 23 51  1  0  0  0  0
 24 29  2  0  0  0  0
 24 25  1  0  0  0  0
 25 26  2  0  0  0  0
 25 52  1  0  0  0  0
 26 27  1  0  0  0  0
 26 53  1  0  0  0  0
 27 28  2  0  0  0  0
 27 54  1  0  0  0  0
 28 29  1  0  0  0  0
 28 30  1  0  0  0  0
 29 55  1  0  0  0  0
 30 32  1  0  0  0  0
 30 62  2  0  0  0  0
 31 62  1  0  0  0  0
 32 56  1  0  0  0  0
 32 57  1  0  0  0  0
 33 34  1  0  0  0  0
 33 58  1  0  0  0  0
 34 35  2  0  0  0  0
 34 59  1  0  0  0  0
 35 36  1  0  0  0  0
 35 60  1  0  0  0  0
 36 37  1  0  0  0  0
 37 61  1  0  0  0  0
 62 63  1  0  0  0  0
M  CHG  1  62   1
M  END
$$$$
