ZINC02047642
  -OEChem-08230709403D

 50 53  0     1  0  0  0  0  0999 V2000
   -6.6147   -2.0720    3.9628 H   0  0  0  0  0  0  0  0  0  0  0  0
   -6.9760   -2.0947    1.9595 C   0  0  0  0  0  0  0  0  0  0  0  0
   -6.3371   -2.3533    0.6489 C   0  0  0  0  0  0  0  0  0  0  0  0
   -7.0741   -2.2204   -0.5279 C   0  0  0  0  0  0  0  0  0  0  0  0
   -6.4733   -2.4627   -1.7460 C   0  0  0  0  0  0  0  0  0  0  0  0
   -5.1425   -2.8374   -1.8017 C   0  0  0  0  0  0  0  0  0  0  0  0
   -4.4066   -2.9714   -0.6383 C   0  0  0  0  0  0  0  0  0  0  0  0
   -4.9979   -2.7367    0.5865 C   0  0  0  0  0  0  0  0  0  0  0  0
   -2.9578   -3.3803   -0.7078 C   0  0  0  0  0  0  0  0  0  0  0  0
   -2.1173   -2.1850   -0.8121 N   0  0  0  0  0  0  0  0  0  0  0  0
   -1.6509   -1.5750    0.4255 C   0  0  0  0  0  0  0  0  0  0  0  0
   -0.4046   -0.7239    0.1750 C   0  0  0  0  0  0  0  0  0  0  0  0
   -0.6519    0.1159   -1.0092 N   0  0  3  0  0  0  0  0  0  0  0  0
   -0.9121   -0.5729   -2.2820 C   0  0  0  0  0  0  0  0  0  0  0  0
   -1.8333   -1.7313   -2.0338 C   0  0  0  0  0  0  0  0  0  0  0  0
   -2.3456   -2.2780   -2.9875 O   0  0  0  0  0  0  0  0  0  0  0  0
   -0.6444    1.7690   -0.9100 S   0  0  0  0  0  0  0  0  0  0  0  0
   -1.4306    2.2445   -1.9939 O   0  0  0  0  0  0  0  0  0  0  0  0
   -0.9340    2.0960    0.4422 O   0  0  0  0  0  0  0  0  0  0  0  0
    1.0073    2.3016   -1.2143 C   0  0  0  0  0  0  0  0  0  0  0  0
    1.5752    2.6152   -2.3875 C   0  0  0  0  0  0  0  0  0  0  0  0
    2.9681    3.0373   -2.4152 C   0  0  0  0  0  0  0  0  0  0  0  0
    3.7584    3.4108   -3.5282 C   0  0  0  0  0  0  0  0  0  0  0  0
    5.0560    3.7816   -3.3663 C   0  0  0  0  0  0  0  0  0  0  0  0
    5.6527    3.8081   -2.1115 C   0  0  0  0  0  0  0  0  0  0  0  0
    4.9144    3.4503   -0.9998 C   0  0  0  0  0  0  0  0  0  0  0  0
    3.5975    3.0725   -1.1521 C   0  0  0  0  0  0  0  0  0  0  0  0
    2.3187    2.5591   -0.0346 S   0  0  0  0  0  0  0  0  0  0  0  0
    7.3125    4.2875   -1.9422 Cl  0  0  0  0  0  0  0  0  0  0  0  0
   -8.3011   -1.7219    2.0183 N   0  0  0  0  0  0  0  0  0  0  0  0
   -8.1131   -1.9286   -0.4855 H   0  0  0  0  0  0  0  0  0  0  0  0
   -7.0429   -2.3601   -2.6578 H   0  0  0  0  0  0  0  0  0  0  0  0
   -4.6766   -3.0265   -2.7576 H   0  0  0  0  0  0  0  0  0  0  0  0
   -4.4234   -2.8459    1.4945 H   0  0  0  0  0  0  0  0  0  0  0  0
   -2.8003   -4.0126   -1.5816 H   0  0  0  0  0  0  0  0  0  0  0  0
   -2.6927   -3.9334    0.1933 H   0  0  0  0  0  0  0  0  0  0  0  0
   -1.4116   -2.3591    1.1439 H   0  0  0  0  0  0  0  0  0  0  0  0
   -2.4402   -0.9438    0.8341 H   0  0  0  0  0  0  0  0  0  0  0  0
    0.4529   -1.3719   -0.0064 H   0  0  0  0  0  0  0  0  0  0  0  0
   -0.2105   -0.0909    1.0408 H   0  0  0  0  0  0  0  0  0  0  0  0
   -1.3779    0.1194   -2.9834 H   0  0  0  0  0  0  0  0  0  0  0  0
    0.0268   -0.9394   -2.6974 H   0  0  0  0  0  0  0  0  0  0  0  0
    1.0052    2.5550   -3.3028 H   0  0  0  0  0  0  0  0  0  0  0  0
    3.3254    3.4009   -4.5176 H   0  0  0  0  0  0  0  0  0  0  0  0
    5.6368    4.0616   -4.2328 H   0  0  0  0  0  0  0  0  0  0  0  0
    5.3659    3.4660   -0.0188 H   0  0  0  0  0  0  0  0  0  0  0  0
   -8.8155   -1.6288    1.2011 H   0  0  0  0  0  0  0  0  0  0  0  0
   -8.7197   -1.5524    2.8767 H   0  0  0  0  0  0  0  0  0  0  0  0
   -6.2202   -2.2390    3.0370 N   0  3  0  0  0  0  0  0  0  0  0  0
   -5.2371   -2.5189    2.9407 H   0  0  0  0  0  0  0  0  0  0  0  0
  1 49  1  0  0  0  0
  2  3  1  0  0  0  0
  2 30  1  0  0  0  0
  2 49  2  0  0  0  0
  3  8  2  0  0  0  0
  3  4  1  0  0  0  0
  4  5  2  0  0  0  0
  4 31  1  0  0  0  0
  5  6  1  0  0  0  0
  5 32  1  0  0  0  0
  6  7  2  0  0  0  0
  6 33  1  0  0  0  0
  7  8  1  0  0  0  0
  7  9  1  0  0  0  0
  8 34  1  0  0  0  0
  9 10  1  0  0  0  0
  9 35  1  0  0  0  0
  9 36  1  0  0  0  0
 10 15  1  0  0  0  0
 10 11  1  0  0  0  0
 11 12  1  0  0  0  0
 11 37  1  0  0  0  0
 11 38  1  0  0  0  0
 12 13  1  0  0  0  0
 12 39  1  0  0  0  0
 12 40  1  0  0  0  0
 13 14  1  0  0  0  0
 13 17  1  0  0  0  0
 14 15  1  0  0  0  0
 14 41  1  0  0  0  0
 14 42  1  0  0  0  0
 15 16  2  0  0  0  0
 17 18  2  0  0  0  0
 17 19  2  0  0  0  0
 17 20  1  0  0  0  0
 20 28  1  0  0  0  0
 20 21  2  0  0  0  0
 21 22  1  0  0  0  0
 21 43  1  0  0  0  0
 22 27  2  0  0  0  0
 22 23  1  0  0  0  0
 23 24  2  0  0  0  0
 23 44  1  0  0  0  0
 24 25  1  0  0  0  0
 24 45  1  0  0  0  0
 25 26  2  0  0  0  0
 25 29  1  0  0  0  0
 26 27  1  0  0  0  0
 26 46  1  0  0  0  0
 27 28  1  0  0  0  0
 30 47  1  0  0  0  0
 30 48  1  0  0  0  0
 49 50  1  0  0  0  0
M  CHG  1  49   1
M  END
$$$$
