ZINC03815848
  -OEChem-08230709403D

 60 63  0     1  0  0  0  0  0999 V2000
    6.1545    1.1304   -1.5441 C   0  0  0  0  0  0  0  0  0  0  0  0
    6.7794    2.5210   -1.4151 C   0  0  1  0  0  0  0  0  0  0  0  0
    6.9071    2.7654   -0.3607 H   0  0  0  0  0  0  0  0  0  0  0  0
    8.1216    2.5342   -2.1000 C   0  0  0  0  0  0  0  0  0  0  0  0
    9.2312    2.7193   -1.3869 C   0  0  0  0  0  0  0  0  0  0  0  0
   10.5727    2.7387   -2.0765 C   0  0  0  0  0  0  0  0  0  0  0  0
    9.3897    2.0339   -4.1101 C   0  0  0  0  0  0  0  0  0  0  0  0
    8.2065    2.3367   -3.5528 C   0  0  0  0  0  0  0  0  0  0  0  0
   11.5752    0.9745   -3.6191 C   0  0  0  0  0  0  0  0  0  0  0  0
    5.9010    3.5112   -2.0431 N   0  0  0  0  0  0  0  0  0  0  0  0
    4.8805    4.0463   -1.3439 C   0  0  0  0  0  0  0  0  0  0  0  0
    4.6327    3.6421   -0.2236 O   0  0  0  0  0  0  0  0  0  0  0  0
    4.0667    5.1189   -1.9353 C   0  0  0  0  0  0  0  0  0  0  0  0
    4.3073    5.7238   -3.1279 C   0  0  0  0  0  0  0  0  0  0  0  0
    3.3007    6.6994   -3.3274 C   0  0  0  0  0  0  0  0  0  0  0  0
    3.0399    7.6171   -4.3533 C   0  0  0  0  0  0  0  0  0  0  0  0
    1.9641    8.4512   -4.2606 C   0  0  0  0  0  0  0  0  0  0  0  0
    1.1222    8.3999   -3.1565 C   0  0  0  0  0  0  0  0  0  0  0  0
    1.3575    7.5073   -2.1353 C   0  0  0  0  0  0  0  0  0  0  0  0
    2.4489    6.6457   -2.2068 C   0  0  0  0  0  0  0  0  0  0  0  0
    2.9337    5.6699   -1.3685 N   0  0  0  0  0  0  0  0  0  0  0  0
    2.3486    5.2822   -0.0827 C   0  0  0  0  0  0  0  0  0  0  0  0
    1.2907    4.2329   -0.3080 C   0  0  0  0  0  0  0  0  0  0  0  0
    1.6348    2.8928   -0.3008 C   0  0  0  0  0  0  0  0  0  0  0  0
    0.6694    1.9239   -0.5065 C   0  0  0  0  0  0  0  0  0  0  0  0
   -0.6431    2.2893   -0.7264 C   0  0  0  0  0  0  0  0  0  0  0  0
   -0.9972    3.6381   -0.7291 C   0  0  0  0  0  0  0  0  0  0  0  0
   -0.0191    4.6105   -0.5207 C   0  0  0  0  0  0  0  0  0  0  0  0
   -2.4049    4.0366   -0.9580 C   0  0  0  0  0  0  0  0  0  0  0  0
   -3.6271    5.6580   -1.1062 H   0  0  0  0  0  0  0  0  0  0  0  0
   -3.3688    3.0738   -1.1636 N   0  0  0  0  0  0  0  0  0  0  0  0
    6.0268    0.8858   -2.5987 H   0  0  0  0  0  0  0  0  0  0  0  0
    6.8081    0.3936   -1.0769 H   0  0  0  0  0  0  0  0  0  0  0  0
    5.1837    1.1208   -1.0488 H   0  0  0  0  0  0  0  0  0  0  0  0
    9.1707    2.8551   -0.3172 H   0  0  0  0  0  0  0  0  0  0  0  0
   10.8281    3.7626   -2.3494 H   0  0  0  0  0  0  0  0  0  0  0  0
   11.3333    2.3376   -1.4065 H   0  0  0  0  0  0  0  0  0  0  0  0
    9.4752    1.8848   -5.1763 H   0  0  0  0  0  0  0  0  0  0  0  0
    7.3254    2.4382   -4.1691 H   0  0  0  0  0  0  0  0  0  0  0  0
   11.3647    0.0047   -3.1682 H   0  0  0  0  0  0  0  0  0  0  0  0
   11.6411    0.8653   -4.7016 H   0  0  0  0  0  0  0  0  0  0  0  0
   12.5208    1.3565   -3.2342 H   0  0  0  0  0  0  0  0  0  0  0  0
    6.0537    3.7815   -2.9619 H   0  0  0  0  0  0  0  0  0  0  0  0
    5.1224    5.5029   -3.8011 H   0  0  0  0  0  0  0  0  0  0  0  0
    3.6890    7.6645   -5.2152 H   0  0  0  0  0  0  0  0  0  0  0  0
    1.7655    9.1580   -5.0526 H   0  0  0  0  0  0  0  0  0  0  0  0
    0.2749    9.0672   -3.0989 H   0  0  0  0  0  0  0  0  0  0  0  0
    0.6976    7.4755   -1.2810 H   0  0  0  0  0  0  0  0  0  0  0  0
    1.8992    6.1555    0.3901 H   0  0  0  0  0  0  0  0  0  0  0  0
    3.1278    4.8794    0.5645 H   0  0  0  0  0  0  0  0  0  0  0  0
    2.6615    2.6021   -0.1336 H   0  0  0  0  0  0  0  0  0  0  0  0
    0.9440    0.8794   -0.4995 H   0  0  0  0  0  0  0  0  0  0  0  0
   -1.3954    1.5321   -0.8913 H   0  0  0  0  0  0  0  0  0  0  0  0
   -0.2867    5.6568   -0.5260 H   0  0  0  0  0  0  0  0  0  0  0  0
   -3.1252    2.1349   -1.1584 H   0  0  0  0  0  0  0  0  0  0  0  0
   -4.2909    3.3349   -1.3135 H   0  0  0  0  0  0  0  0  0  0  0  0
   10.6569    2.1738   -3.4755 N   0  3  2  0  0  0  0  0  0  0  0  0
   11.1211    2.9107   -4.0192 H   0  0  0  0  0  0  0  0  0  0  0  0
   -2.6722    5.3334   -0.9531 N   0  3  0  0  0  0  0  0  0  0  0  0
   -1.9183    6.0123   -0.7952 H   0  0  0  0  0  0  0  0  0  0  0  0
  1  2  1  0  0  0  0
  1 32  1  0  0  0  0
  1 33  1  0  0  0  0
  1 34  1  0  0  0  0
  2  3  1  0  0  0  0
  2  4  1  0  0  0  0
  2 10  1  0  0  0  0
  4  8  1  0  0  0  0
  4  5  2  0  0  0  0
  5  6  1  0  0  0  0
  5 35  1  0  0  0  0
  6 36  1  0  0  0  0
  6 37  1  0  0  0  0
  6 57  1  0  0  0  0
  7  8  2  0  0  0  0
  7 38  1  0  0  0  0
  7 57  1  0  0  0  0
  8 39  1  0  0  0  0
  9 40  1  0  0  0  0
  9 41  1  0  0  0  0
  9 42  1  0  0  0  0
  9 57  1  0  0  0  0
 10 11  1  0  0  0  0
 10 43  1  0  0  0  0
 11 12  2  0  0  0  0
 11 13  1  0  0  0  0
 13 21  1  0  0  0  0
 13 14  2  0  0  0  0
 14 15  1  0  0  0  0
 14 44  1  0  0  0  0
 15 20  2  0  0  0  0
 15 16  1  0  0  0  0
 16 17  2  0  0  0  0
 16 45  1  0  0  0  0
 17 18  1  0  0  0  0
 17 46  1  0  0  0  0
 18 19  2  0  0  0  0
 18 47  1  0  0  0  0
 19 20  1  0  0  0  0
 19 48  1  0  0  0  0
 20 21  1  0  0  0  0
 21 22  1  0  0  0  0
 22 23  1  0  0  0  0
 22 49  1  0  0  0  0
 22 50  1  0  0  0  0
 23 28  2  0  0  0  0
 23 24  1  0  0  0  0
 24 25  2  0  0  0  0
 24 51  1  0  0  0  0
 25 26  1  0  0  0  0
 25 52  1  0  0  0  0
 26 27  2  0  0  0  0
 26 53  1  0  0  0  0
 27 28  1  0  0  0  0
 27 29  1  0  0  0  0
 28 54  1  0  0  0  0
 29 31  1  0  0  0  0
 29 59  2  0  0  0  0
 30 59  1  0  0  0  0
 31 55  1  0  0  0  0
 31 56  1  0  0  0  0
 57 58  1  0  0  0  0
 59 60  1  0  0  0  0
M  CHG  2  57   1  59   1
M  END
$$$$
