ZINC02047636
  -OEChem-08230709403D

 50 53  0     1  0  0  0  0  0999 V2000
   -9.1194   -1.7691   -2.4835 H   0  0  0  0  0  0  0  0  0  0  0  0
   -8.0363   -1.9662   -0.7710 C   0  0  0  0  0  0  0  0  0  0  0  0
   -6.6896   -2.3106   -0.2606 C   0  0  0  0  0  0  0  0  0  0  0  0
   -5.6697   -2.6496   -1.1492 C   0  0  0  0  0  0  0  0  0  0  0  0
   -4.4169   -2.9700   -0.6673 C   0  0  0  0  0  0  0  0  0  0  0  0
   -4.1716   -2.9549    0.6939 C   0  0  0  0  0  0  0  0  0  0  0  0
   -5.1808   -2.6246    1.5807 C   0  0  0  0  0  0  0  0  0  0  0  0
   -6.4363   -2.2977    1.1108 C   0  0  0  0  0  0  0  0  0  0  0  0
   -2.8012   -3.3058    1.2135 C   0  0  0  0  0  0  0  0  0  0  0  0
   -1.9862   -2.0916    1.3004 N   0  0  0  0  0  0  0  0  0  0  0  0
   -2.0192   -1.3418    2.5486 C   0  0  0  0  0  0  0  0  0  0  0  0
   -0.7720   -0.4668    2.6891 C   0  0  0  0  0  0  0  0  0  0  0  0
   -0.5600    0.2394    1.4143 N   0  0  3  0  0  0  0  0  0  0  0  0
   -0.3223   -0.5835    0.2190 C   0  0  0  0  0  0  0  0  0  0  0  0
   -1.2657   -1.7506    0.2309 C   0  0  0  0  0  0  0  0  0  0  0  0
   -1.3813   -2.4116   -0.7792 O   0  0  0  0  0  0  0  0  0  0  0  0
   -0.5947    1.8929    1.3290 S   0  0  0  0  0  0  0  0  0  0  0  0
   -0.9188    2.2235   -0.0143 O   0  0  0  0  0  0  0  0  0  0  0  0
   -1.3707    2.3402    2.4322 O   0  0  0  0  0  0  0  0  0  0  0  0
    1.0493    2.4633    1.6054 C   0  0  0  0  0  0  0  0  0  0  0  0
    2.0145    2.6826    0.7013 C   0  0  0  0  0  0  0  0  0  0  0  0
    3.3152    3.1597    1.1484 C   0  0  0  0  0  0  0  0  0  0  0  0
    4.4639    3.4542    0.3760 C   0  0  0  0  0  0  0  0  0  0  0  0
    5.6053    3.8949    0.9680 C   0  0  0  0  0  0  0  0  0  0  0  0
    5.6883    4.0721    2.3437 C   0  0  0  0  0  0  0  0  0  0  0  0
    4.5883    3.7954    3.1326 C   0  0  0  0  0  0  0  0  0  0  0  0
    3.4254    3.3478    2.5431 C   0  0  0  0  0  0  0  0  0  0  0  0
    1.8224    2.8935    3.1530 S   0  0  0  0  0  0  0  0  0  0  0  0
    7.1625    4.6373    3.0656 Cl  0  0  0  0  0  0  0  0  0  0  0  0
   -9.0421   -1.6317    0.1094 N   0  0  0  0  0  0  0  0  0  0  0  0
   -5.8597   -2.6610   -2.2122 H   0  0  0  0  0  0  0  0  0  0  0  0
   -3.6262   -3.2327   -1.3546 H   0  0  0  0  0  0  0  0  0  0  0  0
   -4.9843   -2.6186    2.6427 H   0  0  0  0  0  0  0  0  0  0  0  0
   -7.2222   -2.0355    1.8038 H   0  0  0  0  0  0  0  0  0  0  0  0
   -2.3261   -4.0146    0.5354 H   0  0  0  0  0  0  0  0  0  0  0  0
   -2.8916   -3.7543    2.2029 H   0  0  0  0  0  0  0  0  0  0  0  0
   -2.0642   -2.0392    3.3850 H   0  0  0  0  0  0  0  0  0  0  0  0
   -2.9057   -0.7077    2.5629 H   0  0  0  0  0  0  0  0  0  0  0  0
    0.0927   -1.0920    2.9114 H   0  0  0  0  0  0  0  0  0  0  0  0
   -0.9190    0.2572    3.4905 H   0  0  0  0  0  0  0  0  0  0  0  0
   -0.4933    0.0147   -0.6760 H   0  0  0  0  0  0  0  0  0  0  0  0
    0.7048   -0.9486    0.2254 H   0  0  0  0  0  0  0  0  0  0  0  0
    1.8291    2.5070   -0.3481 H   0  0  0  0  0  0  0  0  0  0  0  0
    4.4333    3.3270   -0.6961 H   0  0  0  0  0  0  0  0  0  0  0  0
    6.4677    4.1121    0.3550 H   0  0  0  0  0  0  0  0  0  0  0  0
    4.6393    3.9283    4.2032 H   0  0  0  0  0  0  0  0  0  0  0  0
   -8.8679   -1.6218    1.0635 H   0  0  0  0  0  0  0  0  0  0  0  0
   -9.9242   -1.4062   -0.2251 H   0  0  0  0  0  0  0  0  0  0  0  0
   -8.2095   -1.9984   -2.0833 N   0  3  0  0  0  0  0  0  0  0  0  0
   -7.4279   -2.2542   -2.6982 H   0  0  0  0  0  0  0  0  0  0  0  0
  1 49  1  0  0  0  0
  2  3  1  0  0  0  0
  2 30  1  0  0  0  0
  2 49  2  0  0  0  0
  3  8  2  0  0  0  0
  3  4  1  0  0  0  0
  4  5  2  0  0  0  0
  4 31  1  0  0  0  0
  5  6  1  0  0  0  0
  5 32  1  0  0  0  0
  6  7  2  0  0  0  0
  6  9  1  0  0  0  0
  7  8  1  0  0  0  0
  7 33  1  0  0  0  0
  8 34  1  0  0  0  0
  9 10  1  0  0  0  0
  9 35  1  0  0  0  0
  9 36  1  0  0  0  0
 10 15  1  0  0  0  0
 10 11  1  0  0  0  0
 11 12  1  0  0  0  0
 11 37  1  0  0  0  0
 11 38  1  0  0  0  0
 12 13  1  0  0  0  0
 12 39  1  0  0  0  0
 12 40  1  0  0  0  0
 13 14  1  0  0  0  0
 13 17  1  0  0  0  0
 14 15  1  0  0  0  0
 14 41  1  0  0  0  0
 14 42  1  0  0  0  0
 15 16  2  0  0  0  0
 17 18  2  0  0  0  0
 17 19  2  0  0  0  0
 17 20  1  0  0  0  0
 20 28  1  0  0  0  0
 20 21  2  0  0  0  0
 21 22  1  0  0  0  0
 21 43  1  0  0  0  0
 22 27  2  0  0  0  0
 22 23  1  0  0  0  0
 23 24  2  0  0  0  0
 23 44  1  0  0  0  0
 24 25  1  0  0  0  0
 24 45  1  0  0  0  0
 25 26  2  0  0  0  0
 25 29  1  0  0  0  0
 26 27  1  0  0  0  0
 26 46  1  0  0  0  0
 27 28  1  0  0  0  0
 30 47  1  0  0  0  0
 30 48  1  0  0  0  0
 49 50  1  0  0  0  0
M  CHG  1  49   1
M  END
$$$$
