ZINC04631053
  -OEChem-08230709403D

 62 65  0     0  0  0  0  0  0999 V2000
    4.2784   -1.2326   -3.7351 C   0  0  0  0  0  0  0  0  0  0  0  0
    4.0192    0.1443   -3.4541 O   0  0  0  0  0  0  0  0  0  0  0  0
    2.8298    0.6459   -3.8746 C   0  0  0  0  0  0  0  0  0  0  0  0
    1.9312   -0.1634   -4.5410 C   0  0  0  0  0  0  0  0  0  0  0  0
    0.7144    0.3447   -4.9722 C   0  0  0  0  0  0  0  0  0  0  0  0
    0.3812    1.6619   -4.7444 C   0  0  0  0  0  0  0  0  0  0  0  0
    1.2679    2.4998   -4.0747 C   0  0  0  0  0  0  0  0  0  0  0  0
    2.5052    1.9922   -3.6337 C   0  0  0  0  0  0  0  0  0  0  0  0
    3.1862    3.0556   -2.9968 C   0  0  0  0  0  0  0  0  0  0  0  0
    2.3871    4.1537   -3.0556 C   0  0  0  0  0  0  0  0  0  0  0  0
    1.2145    3.8252   -3.7111 N   0  0  0  0  0  0  0  0  0  0  0  0
    0.1020    4.7397   -3.9796 C   0  0  0  0  0  0  0  0  0  0  0  0
   -0.9408    4.5923   -2.9017 C   0  0  0  0  0  0  0  0  0  0  0  0
   -1.9042    3.6045   -3.0035 C   0  0  0  0  0  0  0  0  0  0  0  0
   -2.8616    3.4599   -2.0158 C   0  0  0  0  0  0  0  0  0  0  0  0
   -2.8674    4.3080   -0.9270 C   0  0  0  0  0  0  0  0  0  0  0  0
   -1.9023    5.3088   -0.8214 C   0  0  0  0  0  0  0  0  0  0  0  0
   -0.9362    5.4463   -1.8180 C   0  0  0  0  0  0  0  0  0  0  0  0
   -1.9032    6.2225    0.3440 C   0  0  0  0  0  0  0  0  0  0  0  0
   -0.9883    7.8708    1.1124 H   0  0  0  0  0  0  0  0  0  0  0  0
   -2.7910    6.0195    1.3779 N   0  0  0  0  0  0  0  0  0  0  0  0
    2.7165    5.4775   -2.5104 C   0  0  0  0  0  0  0  0  0  0  0  0
    1.8902    6.3701   -2.5394 O   0  0  0  0  0  0  0  0  0  0  0  0
    3.9339    5.7033   -1.9782 N   0  0  0  0  0  0  0  0  0  0  0  0
    4.2258    6.9868   -1.3352 C   0  0  0  0  0  0  0  0  0  0  0  0
    5.6005    6.9392   -0.7196 C   0  0  0  0  0  0  0  0  0  0  0  0
    5.7686    6.4202    0.5516 C   0  0  0  0  0  0  0  0  0  0  0  0
    7.0256    6.3696    1.1186 C   0  0  0  0  0  0  0  0  0  0  0  0
    8.1264    6.8522    0.4113 C   0  0  0  0  0  0  0  0  0  0  0  0
    7.9498    7.3792   -0.8678 C   0  0  0  0  0  0  0  0  0  0  0  0
    6.6885    7.4200   -1.4260 C   0  0  0  0  0  0  0  0  0  0  0  0
    9.4774    6.8051    1.0159 C   0  0  0  0  0  0  0  0  0  0  0  0
   11.4282    7.2686    0.6637 H   0  0  0  0  0  0  0  0  0  0  0  0
    9.6486    6.2839    2.2798 N   0  0  0  0  0  0  0  0  0  0  0  0
    3.5160   -1.8501   -3.2604 H   0  0  0  0  0  0  0  0  0  0  0  0
    4.2573   -1.3937   -4.8129 H   0  0  0  0  0  0  0  0  0  0  0  0
    5.2599   -1.5043   -3.3463 H   0  0  0  0  0  0  0  0  0  0  0  0
    2.1774   -1.1982   -4.7282 H   0  0  0  0  0  0  0  0  0  0  0  0
    0.0208   -0.2994   -5.4925 H   0  0  0  0  0  0  0  0  0  0  0  0
   -0.5694    2.0446   -5.0854 H   0  0  0  0  0  0  0  0  0  0  0  0
    4.1657    3.0044   -2.5448 H   0  0  0  0  0  0  0  0  0  0  0  0
    0.4698    5.7657   -3.9915 H   0  0  0  0  0  0  0  0  0  0  0  0
   -0.3394    4.5007   -4.9472 H   0  0  0  0  0  0  0  0  0  0  0  0
   -1.9062    2.9410   -3.8557 H   0  0  0  0  0  0  0  0  0  0  0  0
   -3.6089    2.6846   -2.0989 H   0  0  0  0  0  0  0  0  0  0  0  0
   -3.6177    4.1965   -0.1583 H   0  0  0  0  0  0  0  0  0  0  0  0
   -0.1864    6.2198   -1.7419 H   0  0  0  0  0  0  0  0  0  0  0  0
   -3.4156    5.2781    1.3423 H   0  0  0  0  0  0  0  0  0  0  0  0
   -2.7917    6.6179    2.1412 H   0  0  0  0  0  0  0  0  0  0  0  0
    4.6170    5.0158   -2.0210 H   0  0  0  0  0  0  0  0  0  0  0  0
    4.1880    7.7827   -2.0789 H   0  0  0  0  0  0  0  0  0  0  0  0
    3.4863    7.1803   -0.5580 H   0  0  0  0  0  0  0  0  0  0  0  0
    4.9148    6.0502    1.0998 H   0  0  0  0  0  0  0  0  0  0  0  0
    7.1562    5.9601    2.1094 H   0  0  0  0  0  0  0  0  0  0  0  0
    8.7985    7.7541   -1.4204 H   0  0  0  0  0  0  0  0  0  0  0  0
    6.5505    7.8278   -2.4165 H   0  0  0  0  0  0  0  0  0  0  0  0
    8.8843    5.9480    2.7736 H   0  0  0  0  0  0  0  0  0  0  0  0
   10.5335    6.2531    2.6759 H   0  0  0  0  0  0  0  0  0  0  0  0
   -1.0266    7.2148    0.3322 N   0  3  0  0  0  0  0  0  0  0  0  0
   -0.3854    7.3239   -0.4623 H   0  0  0  0  0  0  0  0  0  0  0  0
   10.4786    7.2791    0.2908 N   0  3  0  0  0  0  0  0  0  0  0  0
   10.2995    7.6573   -0.6468 H   0  0  0  0  0  0  0  0  0  0  0  0
  1  2  1  0  0  0  0
  1 35  1  0  0  0  0
  1 36  1  0  0  0  0
  1 37  1  0  0  0  0
  2  3  1  0  0  0  0
  3  8  2  0  0  0  0
  3  4  1  0  0  0  0
  4  5  2  0  0  0  0
  4 38  1  0  0  0  0
  5  6  1  0  0  0  0
  5 39  1  0  0  0  0
  6  7  2  0  0  0  0
  6 40  1  0  0  0  0
  7 11  1  0  0  0  0
  7  8  1  0  0  0  0
  8  9  1  0  0  0  0
  9 10  2  0  0  0  0
  9 41  1  0  0  0  0
 10 11  1  0  0  0  0
 10 22  1  0  0  0  0
 11 12  1  0  0  0  0
 12 13  1  0  0  0  0
 12 42  1  0  0  0  0
 12 43  1  0  0  0  0
 13 18  2  0  0  0  0
 13 14  1  0  0  0  0
 14 15  2  0  0  0  0
 14 44  1  0  0  0  0
 15 16  1  0  0  0  0
 15 45  1  0  0  0  0
 16 17  2  0  0  0  0
 16 46  1  0  0  0  0
 17 18  1  0  0  0  0
 17 19  1  0  0  0  0
 18 47  1  0  0  0  0
 19 21  1  0  0  0  0
 19 59  2  0  0  0  0
 20 59  1  0  0  0  0
 21 48  1  0  0  0  0
 21 49  1  0  0  0  0
 22 23  2  0  0  0  0
 22 24  1  0  0  0  0
 24 25  1  0  0  0  0
 24 50  1  0  0  0  0
 25 26  1  0  0  0  0
 25 51  1  0  0  0  0
 25 52  1  0  0  0  0
 26 31  2  0  0  0  0
 26 27  1  0  0  0  0
 27 28  2  0  0  0  0
 27 53  1  0  0  0  0
 28 29  1  0  0  0  0
 28 54  1  0  0  0  0
 29 30  2  0  0  0  0
 29 32  1  0  0  0  0
 30 31  1  0  0  0  0
 30 55  1  0  0  0  0
 31 56  1  0  0  0  0
 32 34  1  0  0  0  0
 32 61  2  0  0  0  0
 33 61  1  0  0  0  0
 34 57  1  0  0  0  0
 34 58  1  0  0  0  0
 59 60  1  0  0  0  0
 61 62  1  0  0  0  0
M  CHG  2  59   1  61   1
M  END
$$$$
