ZINC03834152
  -OEChem-08230709403D

 60 62  0     1  0  0  0  0  0999 V2000
    0.8953   12.3650    2.2190 H   0  0  0  0  0  0  0  0  0  0  0  0
   -0.8038   11.2549    2.3773 C   0  0  0  0  0  0  0  0  0  0  0  0
   -1.6851   10.3337    1.6237 C   0  0  0  0  0  0  0  0  0  0  0  0
   -2.8214    9.7989    2.2304 C   0  0  0  0  0  0  0  0  0  0  0  0
   -3.6389    8.9416    1.5231 C   0  0  0  0  0  0  0  0  0  0  0  0
   -3.3364    8.6166    0.2126 C   0  0  0  0  0  0  0  0  0  0  0  0
   -2.2080    9.1394   -0.3926 C   0  0  0  0  0  0  0  0  0  0  0  0
   -1.3825    9.9980    0.3047 C   0  0  0  0  0  0  0  0  0  0  0  0
   -1.8823    8.7755   -1.8184 C   0  0  0  0  0  0  0  0  0  0  0  0
   -0.9955    7.5288   -1.8368 C   0  0  1  0  0  0  0  0  0  0  0  0
   -1.4849    6.7267   -1.2844 H   0  0  0  0  0  0  0  0  0  0  0  0
   -0.7710    7.0931   -3.2618 C   0  0  0  0  0  0  0  0  0  0  0  0
    0.3504    7.0449   -3.7092 O   0  0  0  0  0  0  0  0  0  0  0  0
   -1.8166    6.7586   -4.0340 O   0  0  0  0  0  0  0  0  0  0  0  0
   -1.5257    6.3485   -5.3962 C   0  0  0  0  0  0  0  0  0  0  0  0
   -2.8320    6.0086   -6.1165 C   0  0  0  0  0  0  0  0  0  0  0  0
   -2.5254    5.5765   -7.5519 C   0  0  0  0  0  0  0  0  0  0  0  0
   -3.8317    5.2365   -8.2722 C   0  0  0  0  0  0  0  0  0  0  0  0
    0.2930    7.8369   -1.2115 N   0  0  0  0  0  0  0  0  0  0  0  0
    0.5361    7.5028    0.3922 S   0  0  0  0  0  0  0  0  0  0  0  0
   -0.5813    8.0335    1.0915 O   0  0  0  0  0  0  0  0  0  0  0  0
    1.8721    7.8854    0.6887 O   0  0  0  0  0  0  0  0  0  0  0  0
    0.4608    5.7522    0.5769 C   0  0  0  0  0  0  0  0  0  0  0  0
    1.6263    4.9980    0.4526 C   0  0  0  0  0  0  0  0  0  0  0  0
    1.6029    3.6442    0.5896 C   0  0  0  0  0  0  0  0  0  0  0  0
    0.3869    2.9936    0.8603 C   0  0  0  0  0  0  0  0  0  0  0  0
    0.3231    1.5974    1.0078 C   0  0  0  0  0  0  0  0  0  0  0  0
   -0.8724    1.0019    1.2692 C   0  0  0  0  0  0  0  0  0  0  0  0
   -2.0388    1.7556    1.3879 C   0  0  0  0  0  0  0  0  0  0  0  0
   -2.0142    3.1100    1.2571 C   0  0  0  0  0  0  0  0  0  0  0  0
   -0.7982    3.7604    0.9866 C   0  0  0  0  0  0  0  0  0  0  0  0
   -0.7346    5.1565    0.8382 C   0  0  0  0  0  0  0  0  0  0  0  0
   -1.1054   11.5847    3.6806 N   0  0  0  0  0  0  0  0  0  0  0  0
   -3.0611   10.0555    3.2518 H   0  0  0  0  0  0  0  0  0  0  0  0
   -4.5188    8.5264    1.9919 H   0  0  0  0  0  0  0  0  0  0  0  0
   -3.9817    7.9486   -0.3385 H   0  0  0  0  0  0  0  0  0  0  0  0
   -0.5038   10.4088   -0.1703 H   0  0  0  0  0  0  0  0  0  0  0  0
   -1.3556    9.6032   -2.2934 H   0  0  0  0  0  0  0  0  0  0  0  0
   -2.8054    8.5728   -2.3614 H   0  0  0  0  0  0  0  0  0  0  0  0
   -1.0224    7.1609   -5.9205 H   0  0  0  0  0  0  0  0  0  0  0  0
   -0.8799    5.4705   -5.3812 H   0  0  0  0  0  0  0  0  0  0  0  0
   -3.3353    5.1963   -5.5922 H   0  0  0  0  0  0  0  0  0  0  0  0
   -3.4778    6.8866   -6.1315 H   0  0  0  0  0  0  0  0  0  0  0  0
   -2.0221    6.3888   -8.0761 H   0  0  0  0  0  0  0  0  0  0  0  0
   -1.8797    4.6985   -7.5369 H   0  0  0  0  0  0  0  0  0  0  0  0
   -4.3350    4.4242   -7.7479 H   0  0  0  0  0  0  0  0  0  0  0  0
   -4.4775    6.1146   -8.2872 H   0  0  0  0  0  0  0  0  0  0  0  0
   -3.6133    4.9287   -9.2948 H   0  0  0  0  0  0  0  0  0  0  0  0
    1.0038    8.2366   -1.7368 H   0  0  0  0  0  0  0  0  0  0  0  0
    2.5621    5.4955    0.2450 H   0  0  0  0  0  0  0  0  0  0  0  0
    2.5139    3.0727    0.4904 H   0  0  0  0  0  0  0  0  0  0  0  0
    1.2180    1.0002    0.9140 H   0  0  0  0  0  0  0  0  0  0  0  0
   -0.9187   -0.0713    1.3817 H   0  0  0  0  0  0  0  0  0  0  0  0
   -2.9754    1.2577    1.5912 H   0  0  0  0  0  0  0  0  0  0  0  0
   -2.9253    3.6814    1.3555 H   0  0  0  0  0  0  0  0  0  0  0  0
   -1.6297    5.7536    0.9318 H   0  0  0  0  0  0  0  0  0  0  0  0
   -1.8950   11.2136    4.1046 H   0  0  0  0  0  0  0  0  0  0  0  0
   -0.5282   12.1881    4.1742 H   0  0  0  0  0  0  0  0  0  0  0  0
    0.2578   11.7270    1.7423 N   0  3  0  0  0  0  0  0  0  0  0  0
    0.4393   11.4510    0.7701 H   0  0  0  0  0  0  0  0  0  0  0  0
  1 59  1  0  0  0  0
  2  3  1  0  0  0  0
  2 33  1  0  0  0  0
  2 59  2  0  0  0  0
  3  8  2  0  0  0  0
  3  4  1  0  0  0  0
  4  5  2  0  0  0  0
  4 34  1  0  0  0  0
  5  6  1  0  0  0  0
  5 35  1  0  0  0  0
  6  7  2  0  0  0  0
  6 36  1  0  0  0  0
  7  8  1  0  0  0  0
  7  9  1  0  0  0  0
  8 37  1  0  0  0  0
  9 10  1  0  0  0  0
  9 38  1  0  0  0  0
  9 39  1  0  0  0  0
 10 11  1  0  0  0  0
 10 12  1  0  0  0  0
 10 19  1  0  0  0  0
 12 13  2  0  0  0  0
 12 14  1  0  0  0  0
 14 15  1  0  0  0  0
 15 16  1  0  0  0  0
 15 40  1  0  0  0  0
 15 41  1  0  0  0  0
 16 17  1  0  0  0  0
 16 42  1  0  0  0  0
 16 43  1  0  0  0  0
 17 18  1  0  0  0  0
 17 44  1  0  0  0  0
 17 45  1  0  0  0  0
 18 46  1  0  0  0  0
 18 47  1  0  0  0  0
 18 48  1  0  0  0  0
 19 20  1  0  0  0  0
 19 49  1  0  0  0  0
 20 21  2  0  0  0  0
 20 22  2  0  0  0  0
 20 23  1  0  0  0  0
 23 32  2  0  0  0  0
 23 24  1  0  0  0  0
 24 25  2  0  0  0  0
 24 50  1  0  0  0  0
 25 26  1  0  0  0  0
 25 51  1  0  0  0  0
 26 31  2  0  0  0  0
 26 27  1  0  0  0  0
 27 28  2  0  0  0  0
 27 52  1  0  0  0  0
 28 29  1  0  0  0  0
 28 53  1  0  0  0  0
 29 30  2  0  0  0  0
 29 54  1  0  0  0  0
 30 31  1  0  0  0  0
 30 55  1  0  0  0  0
 31 32  1  0  0  0  0
 32 56  1  0  0  0  0
 33 57  1  0  0  0  0
 33 58  1  0  0  0  0
 59 60  1  0  0  0  0
M  CHG  1  59   1
M  END
$$$$
