ZINC03815818
  -OEChem-08230709403D

 67 71  0     1  0  0  0  0  0999 V2000
  -13.4661    2.0684   11.3229 C   0  0  0  0  0  0  0  0  0  0  0  0
  -12.0841    2.0415   11.3121 C   0  0  0  0  0  0  0  0  0  0  0  0
  -11.3759    3.1128   10.8007 C   0  0  0  0  0  0  0  0  0  0  0  0
  -12.0498    4.2107   10.2993 C   0  0  0  0  0  0  0  0  0  0  0  0
  -13.4317    4.2397   10.3144 C   0  0  0  0  0  0  0  0  0  0  0  0
  -14.1400    3.1664   10.8218 C   0  0  0  0  0  0  0  0  0  0  0  0
  -11.1471    5.5763    9.6474 S   0  0  0  0  0  0  0  0  0  0  0  0
   -9.8923    5.5325   10.3129 O   0  0  0  0  0  0  0  0  0  0  0  0
  -12.0126    6.6921    9.8060 O   0  0  0  0  0  0  0  0  0  0  0  0
  -10.9340    5.1963    7.8865 C   0  0  0  0  0  0  0  0  0  0  0  0
  -10.1544    6.3267    7.2115 C   0  0  0  0  0  0  0  0  0  0  0  0
   -9.9823    6.0198    5.7894 N   0  0  0  0  0  0  0  0  0  0  0  0
  -10.8367    6.3741    4.8040 C   0  0  0  0  0  0  0  0  0  0  0  0
  -11.8707    6.9968    4.9463 O   0  0  0  0  0  0  0  0  0  0  0  0
  -10.3487    5.9227    3.6498 N   0  0  0  0  0  0  0  0  0  0  0  0
   -9.1316    5.2572    3.9417 N   0  0  0  0  0  0  0  0  0  0  0  0
   -8.9440    5.3384    5.2566 C   0  0  0  0  0  0  0  0  0  0  0  0
   -8.0014    4.8794    5.8716 O   0  0  0  0  0  0  0  0  0  0  0  0
   -8.3379    4.6406    2.8748 C   0  0  1  0  0  0  0  0  0  0  0  0
   -7.7637    3.8055    3.2761 H   0  0  0  0  0  0  0  0  0  0  0  0
   -9.2998    4.1426    1.8202 C   0  0  0  0  0  0  0  0  0  0  0  0
  -10.4210    4.7562    1.5518 C   0  0  0  0  0  0  0  0  0  0  0  0
  -10.8474    6.0137    2.2745 C   0  0  0  0  0  0  0  0  0  0  0  0
   -7.4053    5.6616    2.2756 C   0  0  0  0  0  0  0  0  0  0  0  0
   -7.3880    6.7946    2.7079 O   0  0  0  0  0  0  0  0  0  0  0  0
   -6.5905    5.3156    1.2594 N   0  0  0  0  0  0  0  0  0  0  0  0
   -5.6839    6.3080    0.6769 C   0  0  0  0  0  0  0  0  0  0  0  0
   -5.3542    5.9139   -0.7642 C   0  0  0  0  0  0  0  0  0  0  0  0
   -4.6815    4.5397   -0.7759 C   0  0  0  0  0  0  0  0  0  0  0  0
   -3.3917    4.5963    0.0452 C   0  0  0  0  0  0  0  0  0  0  0  0
   -3.7214    4.9904    1.4863 C   0  0  0  0  0  0  0  0  0  0  0  0
   -4.3941    6.3646    1.4980 C   0  0  0  0  0  0  0  0  0  0  0  0
   -2.7292    3.2428    0.0337 C   0  0  0  0  0  0  0  0  0  0  0  0
   -3.3474    2.0496    0.0302 C   0  0  0  0  0  0  0  0  0  0  0  0
   -1.2198    1.6419    0.0168 C   0  0  0  0  0  0  0  0  0  0  0  0
   -1.3753    2.9932    0.0303 N   0  0  0  0  0  0  0  0  0  0  0  0
   -0.6446    3.6759    0.0366 H   0  0  0  0  0  0  0  0  0  0  0  0
   -0.0111    0.9658    0.0074 N   0  0  0  0  0  0  0  0  0  0  0  0
  -14.0194    1.2313   11.7224 H   0  0  0  0  0  0  0  0  0  0  0  0
  -11.5576    1.1836   11.7035 H   0  0  0  0  0  0  0  0  0  0  0  0
  -10.2961    3.0920   10.7926 H   0  0  0  0  0  0  0  0  0  0  0  0
  -13.9581    5.0993    9.9267 H   0  0  0  0  0  0  0  0  0  0  0  0
  -15.2198    3.1873   10.8299 H   0  0  0  0  0  0  0  0  0  0  0  0
  -11.9118    5.0975    7.4152 H   0  0  0  0  0  0  0  0  0  0  0  0
  -10.3834    4.2616    7.7805 H   0  0  0  0  0  0  0  0  0  0  0  0
   -9.1766    6.4255    7.6828 H   0  0  0  0  0  0  0  0  0  0  0  0
  -10.7050    7.2614    7.3175 H   0  0  0  0  0  0  0  0  0  0  0  0
   -9.0508    3.2479    1.2689 H   0  0  0  0  0  0  0  0  0  0  0  0
  -11.0665    4.3507    0.7868 H   0  0  0  0  0  0  0  0  0  0  0  0
  -10.4189    6.8868    1.7825 H   0  0  0  0  0  0  0  0  0  0  0  0
  -11.9349    6.0871    2.2793 H   0  0  0  0  0  0  0  0  0  0  0  0
   -6.6043    4.4094    0.9136 H   0  0  0  0  0  0  0  0  0  0  0  0
   -6.1631    7.2870    0.6853 H   0  0  0  0  0  0  0  0  0  0  0  0
   -4.6796    6.6523   -1.1976 H   0  0  0  0  0  0  0  0  0  0  0  0
   -6.2730    5.8736   -1.3492 H   0  0  0  0  0  0  0  0  0  0  0  0
   -4.4466    4.2589   -1.8026 H   0  0  0  0  0  0  0  0  0  0  0  0
   -5.3560    3.8013   -0.3425 H   0  0  0  0  0  0  0  0  0  0  0  0
   -2.7172    5.3347   -0.3882 H   0  0  0  0  0  0  0  0  0  0  0  0
   -4.3960    4.2520    1.9197 H   0  0  0  0  0  0  0  0  0  0  0  0
   -2.8026    5.0307    2.0713 H   0  0  0  0  0  0  0  0  0  0  0  0
   -3.7196    7.1030    1.0646 H   0  0  0  0  0  0  0  0  0  0  0  0
   -4.6290    6.6454    2.5247 H   0  0  0  0  0  0  0  0  0  0  0  0
   -4.4156    1.8909    0.0354 H   0  0  0  0  0  0  0  0  0  0  0  0
    0.0021   -0.0041    0.0020 H   0  0  0  0  0  0  0  0  0  0  0  0
    0.8223    1.4622    0.0021 H   0  0  0  0  0  0  0  0  0  0  0  0
   -2.4087    1.0887    0.0198 N   0  3  0  0  0  0  0  0  0  0  0  0
   -2.5934    0.0787    0.0150 H   0  0  0  0  0  0  0  0  0  0  0  0
  1  6  2  0  0  0  0
  1  2  1  0  0  0  0
  1 39  1  0  0  0  0
  2  3  2  0  0  0  0
  2 40  1  0  0  0  0
  3  4  1  0  0  0  0
  3 41  1  0  0  0  0
  4  5  2  0  0  0  0
  4  7  1  0  0  0  0
  5  6  1  0  0  0  0
  5 42  1  0  0  0  0
  6 43  1  0  0  0  0
  7  8  2  0  0  0  0
  7  9  2  0  0  0  0
  7 10  1  0  0  0  0
 10 11  1  0  0  0  0
 10 44  1  0  0  0  0
 10 45  1  0  0  0  0
 11 12  1  0  0  0  0
 11 46  1  0  0  0  0
 11 47  1  0  0  0  0
 12 17  1  0  0  0  0
 12 13  1  0  0  0  0
 13 14  2  0  0  0  0
 13 15  1  0  0  0  0
 15 23  1  0  0  0  0
 15 16  1  0  0  0  0
 16 17  1  0  0  0  0
 16 19  1  0  0  0  0
 17 18  2  0  0  0  0
 19 20  1  0  0  0  0
 19 21  1  0  0  0  0
 19 24  1  0  0  0  0
 21 22  2  0  0  0  0
 21 48  1  0  0  0  0
 22 23  1  0  0  0  0
 22 49  1  0  0  0  0
 23 50  1  0  0  0  0
 23 51  1  0  0  0  0
 24 25  2  0  0  0  0
 24 26  1  0  0  0  0
 26 27  1  0  0  0  0
 26 52  1  0  0  0  0
 27 32  1  0  0  0  0
 27 28  1  0  0  0  0
 27 53  1  0  0  0  0
 28 29  1  0  0  0  0
 28 54  1  0  0  0  0
 28 55  1  0  0  0  0
 29 30  1  0  0  0  0
 29 56  1  0  0  0  0
 29 57  1  0  0  0  0
 30 31  1  0  0  0  0
 30 33  1  0  0  0  0
 30 58  1  0  0  0  0
 31 32  1  0  0  0  0
 31 59  1  0  0  0  0
 31 60  1  0  0  0  0
 32 61  1  0  0  0  0
 32 62  1  0  0  0  0
 33 36  1  0  0  0  0
 33 34  2  0  0  0  0
 34 63  1  0  0  0  0
 34 66  1  0  0  0  0
 35 36  1  0  0  0  0
 35 38  1  0  0  0  0
 35 66  2  0  0  0  0
 36 37  1  0  0  0  0
 38 64  1  0  0  0  0
 38 65  1  0  0  0  0
 66 67  1  0  0  0  0
M  CHG  1  66   1
M  END
$$$$
