ZINC03815504
  -OEChem-08230709403D

 37 39  0     0  0  0  0  0  0999 V2000
    4.7161    2.6672   -0.5613 C   0  0  0  0  0  0  0  0  0  0  0  0
    3.2116    2.6200   -0.4896 C   0  0  0  0  0  0  0  0  0  0  0  0
    2.3698    3.6620   -0.7028 C   0  0  0  0  0  0  0  0  0  0  0  0
    1.0910    3.2334   -0.5547 N   0  0  0  0  0  0  0  0  0  0  0  0
    0.2957    3.7793   -0.6566 H   0  0  0  0  0  0  0  0  0  0  0  0
    1.1110    1.8936   -0.2316 C   0  0  0  0  0  0  0  0  0  0  0  0
    2.4387    1.4963   -0.1913 C   0  0  0  0  0  0  0  0  0  0  0  0
    2.9509    0.1127    0.1160 C   0  0  0  0  0  0  0  0  0  0  0  0
    3.0672   -0.6881   -1.1825 C   0  0  0  0  0  0  0  0  0  0  0  0
    3.5794   -2.0717   -0.8752 C   0  0  0  0  0  0  0  0  0  0  0  0
    3.8260   -2.3852    0.2653 O   0  0  0  0  0  0  0  0  0  0  0  0
   -0.0126    1.0758    0.0080 C   0  0  0  0  0  0  0  0  0  0  0  0
   -1.1420    1.6094    0.5988 C   0  0  0  0  0  0  0  0  0  0  0  0
   -2.4575    0.9561    0.7788 C   0  0  0  0  0  0  0  0  0  0  0  0
   -2.9479   -0.3054    0.4566 C   0  0  0  0  0  0  0  0  0  0  0  0
   -4.2527   -0.6326    0.7685 C   0  0  0  0  0  0  0  0  0  0  0  0
   -5.0670    0.2904    1.4055 C   0  0  0  0  0  0  0  0  0  0  0  0
   -4.5873    1.5416    1.7351 C   0  0  0  0  0  0  0  0  0  0  0  0
   -3.2761    1.8894    1.4291 C   0  0  0  0  0  0  0  0  0  0  0  0
   -2.5543    3.0573    1.6443 N   0  0  0  0  0  0  0  0  0  0  0  0
   -1.2985    2.9496    1.1781 C   0  0  0  0  0  0  0  0  0  0  0  0
   -0.4403    3.8130    1.2269 O   0  0  0  0  0  0  0  0  0  0  0  0
   -4.9294   -2.3419    0.3254 Br  0  0  0  0  0  0  0  0  0  0  0  0
    5.0387    2.4409   -1.5776 H   0  0  0  0  0  0  0  0  0  0  0  0
    5.0621    3.6628   -0.2835 H   0  0  0  0  0  0  0  0  0  0  0  0
    5.1358    1.9319    0.1252 H   0  0  0  0  0  0  0  0  0  0  0  0
    2.6690    4.6689   -0.9538 H   0  0  0  0  0  0  0  0  0  0  0  0
    3.9309    0.1844    0.5876 H   0  0  0  0  0  0  0  0  0  0  0  0
    2.2584   -0.3894    0.7916 H   0  0  0  0  0  0  0  0  0  0  0  0
    2.0872   -0.7599   -1.6542 H   0  0  0  0  0  0  0  0  0  0  0  0
    3.7597   -0.1861   -1.8582 H   0  0  0  0  0  0  0  0  0  0  0  0
    0.0080    0.0336   -0.2744 H   0  0  0  0  0  0  0  0  0  0  0  0
   -2.3124   -1.0239   -0.0397 H   0  0  0  0  0  0  0  0  0  0  0  0
   -6.0865    0.0278    1.6464 H   0  0  0  0  0  0  0  0  0  0  0  0
   -5.2316    2.2522    2.2313 H   0  0  0  0  0  0  0  0  0  0  0  0
   -2.9115    3.8494    2.0755 H   0  0  0  0  0  0  0  0  0  0  0  0
    3.7615   -2.9559   -1.8686 O   0  5  0  0  0  0  0  0  0  0  0  0
  1  2  1  0  0  0  0
  1 24  1  0  0  0  0
  1 25  1  0  0  0  0
  1 26  1  0  0  0  0
  2  7  1  0  0  0  0
  2  3  2  0  0  0  0
  3  4  1  0  0  0  0
  3 27  1  0  0  0  0
  4  5  1  0  0  0  0
  4  6  1  0  0  0  0
  6  7  2  0  0  0  0
  6 12  1  0  0  0  0
  7  8  1  0  0  0  0
  8  9  1  0  0  0  0
  8 28  1  0  0  0  0
  8 29  1  0  0  0  0
  9 10  1  0  0  0  0
  9 30  1  0  0  0  0
  9 31  1  0  0  0  0
 10 11  2  0  0  0  0
 10 37  1  0  0  0  0
 12 13  2  0  0  0  0
 12 32  1  0  0  0  0
 13 21  1  0  0  0  0
 13 14  1  0  0  0  0
 14 19  2  0  0  0  0
 14 15  1  0  0  0  0
 15 16  2  0  0  0  0
 15 33  1  0  0  0  0
 16 17  1  0  0  0  0
 16 23  1  0  0  0  0
 17 18  2  0  0  0  0
 17 34  1  0  0  0  0
 18 19  1  0  0  0  0
 18 35  1  0  0  0  0
 19 20  1  0  0  0  0
 20 21  1  0  0  0  0
 20 36  1  0  0  0  0
 21 22  2  0  0  0  0
M  CHG  1  37  -1
M  END
$$$$
