ZINC03815490
  -OEChem-08230709403D

 57 60  0     0  0  0  0  0  0999 V2000
    1.8775    8.5250   -0.0210 C   0  0  0  0  0  0  0  0  0  0  0  0
    3.2048    7.9124   -0.1158 N   0  0  0  0  0  0  0  0  0  0  0  0
    3.3189    6.5470   -0.1881 C   0  0  0  0  0  0  0  0  0  0  0  0
    4.5906    5.9406   -0.2799 C   0  0  0  0  0  0  0  0  0  0  0  0
    5.7585    6.7367   -0.2981 C   0  0  0  0  0  0  0  0  0  0  0  0
    5.6348    8.0984   -0.2265 C   0  0  0  0  0  0  0  0  0  0  0  0
    4.3008    8.6952   -0.1317 C   0  0  0  0  0  0  0  0  0  0  0  0
    4.1817    9.9058   -0.0671 O   0  0  0  0  0  0  0  0  0  0  0  0
    6.8397    8.9603   -0.2438 C   0  0  0  0  0  0  0  0  0  0  0  0
    7.4655    9.3139    0.9522 C   0  0  0  0  0  0  0  0  0  0  0  0
    8.5907   10.1146    0.9288 C   0  0  0  0  0  0  0  0  0  0  0  0
    9.0920   10.5732   -0.2761 C   0  0  0  0  0  0  0  0  0  0  0  0
    8.4736   10.2302   -1.4650 C   0  0  0  0  0  0  0  0  0  0  0  0
    7.3503    9.4267   -1.4559 C   0  0  0  0  0  0  0  0  0  0  0  0
    6.5749    8.9984   -2.9489 Cl  0  0  0  0  0  0  0  0  0  0  0  0
    6.8345    8.7443    2.4658 Cl  0  0  0  0  0  0  0  0  0  0  0  0
    4.6632    4.5414   -0.3522 C   0  0  0  0  0  0  0  0  0  0  0  0
    3.5400    3.8486   -0.3315 N   0  0  0  0  0  0  0  0  0  0  0  0
    2.3604    4.4534   -0.2443 C   0  0  0  0  0  0  0  0  0  0  0  0
    2.2412    5.7707   -0.1788 N   0  0  0  0  0  0  0  0  0  0  0  0
    1.2158    3.6801   -0.2270 N   0  0  0  0  0  0  0  0  0  0  0  0
    1.3147    2.2837   -0.1981 C   0  0  0  0  0  0  0  0  0  0  0  0
    2.3614    1.6753    0.4821 C   0  0  0  0  0  0  0  0  0  0  0  0
    2.4580    0.2981    0.5105 C   0  0  0  0  0  0  0  0  0  0  0  0
    1.5096   -0.4776   -0.1399 C   0  0  0  0  0  0  0  0  0  0  0  0
    0.4637    0.1293   -0.8196 C   0  0  0  0  0  0  0  0  0  0  0  0
    0.3659    1.5064   -0.8493 C   0  0  0  0  0  0  0  0  0  0  0  0
    1.6049   -1.8338   -0.1107 O   0  0  0  0  0  0  0  0  0  0  0  0
    0.5938   -2.5702   -0.8017 C   0  0  0  0  0  0  0  0  0  0  0  0
    0.8665   -4.0689   -0.6582 C   0  0  0  0  0  0  0  0  0  0  0  0
   -0.6587   -4.5218    1.1670 C   0  0  0  0  0  0  0  0  0  0  0  0
    1.4343   -5.7290    1.0105 C   0  0  0  0  0  0  0  0  0  0  0  0
    1.5984    8.6269    1.0277 H   0  0  0  0  0  0  0  0  0  0  0  0
    1.8973    9.5093   -0.4890 H   0  0  0  0  0  0  0  0  0  0  0  0
    1.1491    7.8948   -0.5312 H   0  0  0  0  0  0  0  0  0  0  0  0
    6.7336    6.2778   -0.3686 H   0  0  0  0  0  0  0  0  0  0  0  0
    9.0780   10.3862    1.8535 H   0  0  0  0  0  0  0  0  0  0  0  0
    9.9699   11.2021   -0.2887 H   0  0  0  0  0  0  0  0  0  0  0  0
    8.8697   10.5919   -2.4024 H   0  0  0  0  0  0  0  0  0  0  0  0
    5.6181    4.0418   -0.4237 H   0  0  0  0  0  0  0  0  0  0  0  0
    0.3436    4.1045   -0.2349 H   0  0  0  0  0  0  0  0  0  0  0  0
    3.0972    2.2790    0.9925 H   0  0  0  0  0  0  0  0  0  0  0  0
    3.2720   -0.1752    1.0394 H   0  0  0  0  0  0  0  0  0  0  0  0
   -0.2741   -0.4753   -1.3260 H   0  0  0  0  0  0  0  0  0  0  0  0
   -0.4482    1.9788   -1.3789 H   0  0  0  0  0  0  0  0  0  0  0  0
   -0.3816   -2.3360   -0.3755 H   0  0  0  0  0  0  0  0  0  0  0  0
    0.6039   -2.2986   -1.8573 H   0  0  0  0  0  0  0  0  0  0  0  0
    0.1411   -4.6284   -1.2489 H   0  0  0  0  0  0  0  0  0  0  0  0
    1.8729   -4.2908   -1.0133 H   0  0  0  0  0  0  0  0  0  0  0  0
   -1.1808   -5.2602    0.5586 H   0  0  0  0  0  0  0  0  0  0  0  0
   -0.7164   -4.8095    2.2168 H   0  0  0  0  0  0  0  0  0  0  0  0
   -1.1237   -3.5452    1.0318 H   0  0  0  0  0  0  0  0  0  0  0  0
    2.5045   -5.6063    0.8433 H   0  0  0  0  0  0  0  0  0  0  0  0
    1.2604   -6.0340    2.0423 H   0  0  0  0  0  0  0  0  0  0  0  0
    1.0463   -6.4920    0.3357 H   0  0  0  0  0  0  0  0  0  0  0  0
    0.7624   -4.4346    0.7702 N   0  3  0  0  0  0  0  0  0  0  0  0
    1.2224   -3.7103    1.3342 H   0  0  0  0  0  0  0  0  0  0  0  0
  1  2  1  0  0  0  0
  1 33  1  0  0  0  0
  1 34  1  0  0  0  0
  1 35  1  0  0  0  0
  2  7  1  0  0  0  0
  2  3  1  0  0  0  0
  3 20  2  0  0  0  0
  3  4  1  0  0  0  0
  4  5  1  0  0  0  0
  4 17  2  0  0  0  0
  5  6  2  0  0  0  0
  5 36  1  0  0  0  0
  6  7  1  0  0  0  0
  6  9  1  0  0  0  0
  7  8  2  0  0  0  0
  9 14  2  0  0  0  0
  9 10  1  0  0  0  0
 10 11  2  0  0  0  0
 10 16  1  0  0  0  0
 11 12  1  0  0  0  0
 11 37  1  0  0  0  0
 12 13  2  0  0  0  0
 12 38  1  0  0  0  0
 13 14  1  0  0  0  0
 13 39  1  0  0  0  0
 14 15  1  0  0  0  0
 17 18  1  0  0  0  0
 17 40  1  0  0  0  0
 18 19  2  0  0  0  0
 19 20  1  0  0  0  0
 19 21  1  0  0  0  0
 21 22  1  0  0  0  0
 21 41  1  0  0  0  0
 22 27  2  0  0  0  0
 22 23  1  0  0  0  0
 23 24  2  0  0  0  0
 23 42  1  0  0  0  0
 24 25  1  0  0  0  0
 24 43  1  0  0  0  0
 25 26  2  0  0  0  0
 25 28  1  0  0  0  0
 26 27  1  0  0  0  0
 26 44  1  0  0  0  0
 27 45  1  0  0  0  0
 28 29  1  0  0  0  0
 29 30  1  0  0  0  0
 29 46  1  0  0  0  0
 29 47  1  0  0  0  0
 30 48  1  0  0  0  0
 30 49  1  0  0  0  0
 30 56  1  0  0  0  0
 31 50  1  0  0  0  0
 31 51  1  0  0  0  0
 31 52  1  0  0  0  0
 31 56  1  0  0  0  0
 32 53  1  0  0  0  0
 32 54  1  0  0  0  0
 32 55  1  0  0  0  0
 32 56  1  0  0  0  0
 56 57  1  0  0  0  0
M  CHG  1  56   1
M  END
$$$$
