ZINC03815491
  -OEChem-08230709403D

 64 68  0     0  0  0  0  0  0999 V2000
   -2.4742    7.3448   -1.1073 C   0  0  0  0  0  0  0  0  0  0  0  0
   -3.3853    6.4502   -0.3891 N   0  0  0  0  0  0  0  0  0  0  0  0
   -3.0179    5.1483   -0.1596 C   0  0  0  0  0  0  0  0  0  0  0  0
   -3.8841    4.2730    0.5308 C   0  0  0  0  0  0  0  0  0  0  0  0
   -5.1391    4.7317    0.9920 C   0  0  0  0  0  0  0  0  0  0  0  0
   -5.4970    6.0325    0.7588 C   0  0  0  0  0  0  0  0  0  0  0  0
   -4.5749    6.9141    0.0395 C   0  0  0  0  0  0  0  0  0  0  0  0
   -4.8853    8.0729   -0.1719 O   0  0  0  0  0  0  0  0  0  0  0  0
   -6.8053    6.5438    1.2299 C   0  0  0  0  0  0  0  0  0  0  0  0
   -7.9273    6.4643    0.4039 C   0  0  0  0  0  0  0  0  0  0  0  0
   -9.1450    6.9383    0.8510 C   0  0  0  0  0  0  0  0  0  0  0  0
   -9.2518    7.5000    2.1106 C   0  0  0  0  0  0  0  0  0  0  0  0
   -8.1424    7.5866    2.9323 C   0  0  0  0  0  0  0  0  0  0  0  0
   -6.9198    7.1119    2.4992 C   0  0  0  0  0  0  0  0  0  0  0  0
   -5.5284    7.2225    3.5315 Cl  0  0  0  0  0  0  0  0  0  0  0  0
   -7.7940    5.7657   -1.1797 Cl  0  0  0  0  0  0  0  0  0  0  0  0
   -3.4701    2.9498    0.7451 C   0  0  0  0  0  0  0  0  0  0  0  0
   -2.2877    2.5766    0.2926 N   0  0  0  0  0  0  0  0  0  0  0  0
   -1.4985    3.4281   -0.3533 C   0  0  0  0  0  0  0  0  0  0  0  0
   -1.8435    4.6873   -0.5750 N   0  0  0  0  0  0  0  0  0  0  0  0
   -0.2706    2.9852   -0.8054 N   0  0  0  0  0  0  0  0  0  0  0  0
    0.0770    1.6348   -0.6776 C   0  0  0  0  0  0  0  0  0  0  0  0
   -0.9027    0.6543   -0.7620 C   0  0  0  0  0  0  0  0  0  0  0  0
   -0.5590   -0.6773   -0.6363 C   0  0  0  0  0  0  0  0  0  0  0  0
    0.7645   -1.0355   -0.4262 C   0  0  0  0  0  0  0  0  0  0  0  0
    1.7438   -0.0566   -0.3418 C   0  0  0  0  0  0  0  0  0  0  0  0
    1.4017    1.2754   -0.4668 C   0  0  0  0  0  0  0  0  0  0  0  0
    1.1022   -2.3469   -0.3025 O   0  0  0  0  0  0  0  0  0  0  0  0
    2.4834   -2.6438   -0.0877 C   0  0  0  0  0  0  0  0  0  0  0  0
    2.6679   -4.1583    0.0257 C   0  0  0  0  0  0  0  0  0  0  0  0
    2.0411   -6.2182   -1.0810 C   0  0  0  0  0  0  0  0  0  0  0  0
    1.5568   -6.8091   -2.4069 C   0  0  0  0  0  0  0  0  0  0  0  0
    2.6408   -6.6183   -3.4714 C   0  0  0  0  0  0  0  0  0  0  0  0
    2.9605   -5.1265   -3.6014 C   0  0  0  0  0  0  0  0  0  0  0  0
    3.4041   -4.5844   -2.2408 C   0  0  0  0  0  0  0  0  0  0  0  0
   -2.6775    7.2884   -2.1766 H   0  0  0  0  0  0  0  0  0  0  0  0
   -2.6231    8.3681   -0.7626 H   0  0  0  0  0  0  0  0  0  0  0  0
   -1.4441    7.0436   -0.9169 H   0  0  0  0  0  0  0  0  0  0  0  0
   -5.8053    4.0663    1.5210 H   0  0  0  0  0  0  0  0  0  0  0  0
  -10.0150    6.8741    0.2142 H   0  0  0  0  0  0  0  0  0  0  0  0
  -10.2055    7.8730    2.4539 H   0  0  0  0  0  0  0  0  0  0  0  0
   -8.2323    8.0266    3.9145 H   0  0  0  0  0  0  0  0  0  0  0  0
   -4.1054    2.2513    1.2695 H   0  0  0  0  0  0  0  0  0  0  0  0
    0.3508    3.6096   -1.2113 H   0  0  0  0  0  0  0  0  0  0  0  0
   -1.9325    0.9327   -0.9303 H   0  0  0  0  0  0  0  0  0  0  0  0
   -1.3208   -1.4400   -0.7019 H   0  0  0  0  0  0  0  0  0  0  0  0
    2.7740   -0.3363   -0.1779 H   0  0  0  0  0  0  0  0  0  0  0  0
    2.1641    2.0374   -0.4007 H   0  0  0  0  0  0  0  0  0  0  0  0
    3.0704   -2.2680   -0.9258 H   0  0  0  0  0  0  0  0  0  0  0  0
    2.8185   -2.1669    0.8333 H   0  0  0  0  0  0  0  0  0  0  0  0
    3.7043   -4.3801    0.2802 H   0  0  0  0  0  0  0  0  0  0  0  0
    2.0115   -4.5470    0.8042 H   0  0  0  0  0  0  0  0  0  0  0  0
    2.9450   -6.7366   -0.7609 H   0  0  0  0  0  0  0  0  0  0  0  0
    1.2658   -6.3397   -0.3245 H   0  0  0  0  0  0  0  0  0  0  0  0
    0.6452   -6.3004   -2.7206 H   0  0  0  0  0  0  0  0  0  0  0  0
    1.3547   -7.8727   -2.2799 H   0  0  0  0  0  0  0  0  0  0  0  0
    2.2829   -6.9989   -4.4280 H   0  0  0  0  0  0  0  0  0  0  0  0
    3.5403   -7.1594   -3.1776 H   0  0  0  0  0  0  0  0  0  0  0  0
    2.0710   -4.5914   -3.9339 H   0  0  0  0  0  0  0  0  0  0  0  0
    3.7618   -4.9880   -4.3272 H   0  0  0  0  0  0  0  0  0  0  0  0
    3.6188   -3.5192   -2.3267 H   0  0  0  0  0  0  0  0  0  0  0  0
    4.3015   -5.1106   -1.9154 H   0  0  0  0  0  0  0  0  0  0  0  0
    2.3081   -4.7760   -1.2674 N   0  3  0  0  0  0  0  0  0  0  0  0
    1.4597   -4.3241   -1.6281 H   0  0  0  0  0  0  0  0  0  0  0  0
  1  2  1  0  0  0  0
  1 36  1  0  0  0  0
  1 37  1  0  0  0  0
  1 38  1  0  0  0  0
  2  7  1  0  0  0  0
  2  3  1  0  0  0  0
  3 20  2  0  0  0  0
  3  4  1  0  0  0  0
  4  5  1  0  0  0  0
  4 17  2  0  0  0  0
  5  6  2  0  0  0  0
  5 39  1  0  0  0  0
  6  7  1  0  0  0  0
  6  9  1  0  0  0  0
  7  8  2  0  0  0  0
  9 14  2  0  0  0  0
  9 10  1  0  0  0  0
 10 11  2  0  0  0  0
 10 16  1  0  0  0  0
 11 12  1  0  0  0  0
 11 40  1  0  0  0  0
 12 13  2  0  0  0  0
 12 41  1  0  0  0  0
 13 14  1  0  0  0  0
 13 42  1  0  0  0  0
 14 15  1  0  0  0  0
 17 18  1  0  0  0  0
 17 43  1  0  0  0  0
 18 19  2  0  0  0  0
 19 20  1  0  0  0  0
 19 21  1  0  0  0  0
 21 22  1  0  0  0  0
 21 44  1  0  0  0  0
 22 27  2  0  0  0  0
 22 23  1  0  0  0  0
 23 24  2  0  0  0  0
 23 45  1  0  0  0  0
 24 25  1  0  0  0  0
 24 46  1  0  0  0  0
 25 26  2  0  0  0  0
 25 28  1  0  0  0  0
 26 27  1  0  0  0  0
 26 47  1  0  0  0  0
 27 48  1  0  0  0  0
 28 29  1  0  0  0  0
 29 30  1  0  0  0  0
 29 49  1  0  0  0  0
 29 50  1  0  0  0  0
 30 51  1  0  0  0  0
 30 52  1  0  0  0  0
 30 63  1  0  0  0  0
 31 32  1  0  0  0  0
 31 53  1  0  0  0  0
 31 54  1  0  0  0  0
 31 63  1  0  0  0  0
 32 33  1  0  0  0  0
 32 55  1  0  0  0  0
 32 56  1  0  0  0  0
 33 34  1  0  0  0  0
 33 57  1  0  0  0  0
 33 58  1  0  0  0  0
 34 35  1  0  0  0  0
 34 59  1  0  0  0  0
 34 60  1  0  0  0  0
 35 61  1  0  0  0  0
 35 62  1  0  0  0  0
 35 63  1  0  0  0  0
 63 64  1  0  0  0  0
M  CHG  1  63   1
M  END
$$$$
