ZINC03815540
  -OEChem-08230709403D

 42 44  0     0  0  0  0  0  0999 V2000
   -0.3079    1.0798    0.1616 C   0  0  0  0  0  0  0  0  0  0  0  0
   -0.8840    1.3954    1.5179 C   0  0  0  0  0  0  0  0  0  0  0  0
   -2.2386    1.4630    1.8489 C   0  0  0  0  0  0  0  0  0  0  0  0
   -2.3323    1.7694    3.1669 C   0  0  0  0  0  0  0  0  0  0  0  0
   -1.0828    1.9072    3.6777 N   0  0  0  0  0  0  0  0  0  0  0  0
   -0.8685    2.1285    4.5975 H   0  0  0  0  0  0  0  0  0  0  0  0
   -0.1689    1.6793    2.6713 C   0  0  0  0  0  0  0  0  0  0  0  0
    1.2353    1.7263    2.7925 C   0  0  0  0  0  0  0  0  0  0  0  0
    1.8237    2.6209    3.6658 C   0  0  0  0  0  0  0  0  0  0  0  0
    3.2537    2.7076    4.0395 C   0  0  0  0  0  0  0  0  0  0  0  0
    4.3791    1.9918    3.6593 C   0  0  0  0  0  0  0  0  0  0  0  0
    5.6231    2.3269    4.1962 C   0  0  0  0  0  0  0  0  0  0  0  0
    5.7246    3.3846    5.1076 C   0  0  0  0  0  0  0  0  0  0  0  0
    4.6077    4.0961    5.4780 C   0  0  0  0  0  0  0  0  0  0  0  0
    3.3594    3.7719    4.9495 C   0  0  0  0  0  0  0  0  0  0  0  0
    2.1043    4.3206    5.1544 N   0  0  0  0  0  0  0  0  0  0  0  0
    1.1660    3.6883    4.4299 C   0  0  0  0  0  0  0  0  0  0  0  0
   -0.0227    3.9538    4.4109 O   0  0  0  0  0  0  0  0  0  0  0  0
    6.8263    1.5690    3.8050 C   0  0  0  0  0  0  0  0  0  0  0  0
    6.7358    0.6513    3.0138 O   0  0  0  0  0  0  0  0  0  0  0  0
   -3.6164    1.9368    3.9376 C   0  0  0  0  0  0  0  0  0  0  0  0
   -3.3932    1.2322    0.9085 C   0  0  0  0  0  0  0  0  0  0  0  0
   -3.7732   -0.2498    0.9215 C   0  0  0  0  0  0  0  0  0  0  0  0
   -4.9279   -0.4806   -0.0190 C   0  0  0  0  0  0  0  0  0  0  0  0
   -5.3986    0.4452   -0.6363 O   0  0  0  0  0  0  0  0  0  0  0  0
   -0.1565    0.0040    0.0725 H   0  0  0  0  0  0  0  0  0  0  0  0
    0.6471    1.5920    0.0443 H   0  0  0  0  0  0  0  0  0  0  0  0
   -0.9976    1.4150   -0.6130 H   0  0  0  0  0  0  0  0  0  0  0  0
    1.8507    1.0630    2.2028 H   0  0  0  0  0  0  0  0  0  0  0  0
    4.2927    1.1771    2.9556 H   0  0  0  0  0  0  0  0  0  0  0  0
    6.6874    3.6440    5.5227 H   0  0  0  0  0  0  0  0  0  0  0  0
    4.6981    4.9099    6.1823 H   0  0  0  0  0  0  0  0  0  0  0  0
    1.9251    5.0672    5.7471 H   0  0  0  0  0  0  0  0  0  0  0  0
   -3.9386    2.9768    3.8854 H   0  0  0  0  0  0  0  0  0  0  0  0
   -4.3854    1.2962    3.5059 H   0  0  0  0  0  0  0  0  0  0  0  0
   -3.4542    1.6586    4.9789 H   0  0  0  0  0  0  0  0  0  0  0  0
   -4.2473    1.8290    1.2284 H   0  0  0  0  0  0  0  0  0  0  0  0
   -3.1037    1.5242   -0.1010 H   0  0  0  0  0  0  0  0  0  0  0  0
   -2.9191   -0.8467    0.6015 H   0  0  0  0  0  0  0  0  0  0  0  0
   -4.0628   -0.5418    1.9309 H   0  0  0  0  0  0  0  0  0  0  0  0
    8.0261    1.8942    4.3251 O   0  5  0  0  0  0  0  0  0  0  0  0
   -5.4333   -1.7148   -0.1709 O   0  5  0  0  0  0  0  0  0  0  0  0
  1  2  1  0  0  0  0
  1 26  1  0  0  0  0
  1 27  1  0  0  0  0
  1 28  1  0  0  0  0
  2  7  2  0  0  0  0
  2  3  1  0  0  0  0
  3  4  2  0  0  0  0
  3 22  1  0  0  0  0
  4  5  1  0  0  0  0
  4 21  1  0  0  0  0
  5  6  1  0  0  0  0
  5  7  1  0  0  0  0
  7  8  1  0  0  0  0
  8  9  2  0  0  0  0
  8 29  1  0  0  0  0
  9 17  1  0  0  0  0
  9 10  1  0  0  0  0
 10 15  2  0  0  0  0
 10 11  1  0  0  0  0
 11 12  2  0  0  0  0
 11 30  1  0  0  0  0
 12 13  1  0  0  0  0
 12 19  1  0  0  0  0
 13 14  2  0  0  0  0
 13 31  1  0  0  0  0
 14 15  1  0  0  0  0
 14 32  1  0  0  0  0
 15 16  1  0  0  0  0
 16 17  1  0  0  0  0
 16 33  1  0  0  0  0
 17 18  2  0  0  0  0
 19 20  2  0  0  0  0
 19 41  1  0  0  0  0
 21 34  1  0  0  0  0
 21 35  1  0  0  0  0
 21 36  1  0  0  0  0
 22 23  1  0  0  0  0
 22 37  1  0  0  0  0
 22 38  1  0  0  0  0
 23 24  1  0  0  0  0
 23 39  1  0  0  0  0
 23 40  1  0  0  0  0
 24 25  2  0  0  0  0
 24 42  1  0  0  0  0
M  CHG  2  41  -1  42  -1
M  END
$$$$
