ZINC03815517
  -OEChem-08230709403D

 64 67  0     0  0  0  0  0  0999 V2000
    2.1337   -7.2540    1.5393 C   0  0  0  0  0  0  0  0  0  0  0  0
    3.3723   -6.3811    1.7516 C   0  0  0  0  0  0  0  0  0  0  0  0
    4.7329   -7.9270    0.4781 C   0  0  0  0  0  0  0  0  0  0  0  0
    5.7036   -8.2566    1.6138 C   0  0  0  0  0  0  0  0  0  0  0  0
    3.6500   -6.0682   -0.6333 C   0  0  0  0  0  0  0  0  0  0  0  0
    3.4202   -4.5578   -0.5518 C   0  0  0  0  0  0  0  0  0  0  0  0
    4.6804   -3.8866   -0.4932 O   0  0  0  0  0  0  0  0  0  0  0  0
    4.6539   -2.5291   -0.4170 C   0  0  0  0  0  0  0  0  0  0  0  0
    5.8416   -1.8150   -0.3571 C   0  0  0  0  0  0  0  0  0  0  0  0
    5.8157   -0.4365   -0.2793 C   0  0  0  0  0  0  0  0  0  0  0  0
    4.6001    0.2348   -0.2614 C   0  0  0  0  0  0  0  0  0  0  0  0
    3.4114   -0.4813   -0.3161 C   0  0  0  0  0  0  0  0  0  0  0  0
    3.4393   -1.8594   -0.3987 C   0  0  0  0  0  0  0  0  0  0  0  0
    4.5729    1.6322   -0.1825 N   0  0  0  0  0  0  0  0  0  0  0  0
    5.5130    2.3844   -0.8722 C   0  0  0  0  0  0  0  0  0  0  0  0
    5.5507    3.7601   -0.6897 C   0  0  0  0  0  0  0  0  0  0  0  0
    6.4962    4.5037   -1.3853 C   0  0  0  0  0  0  0  0  0  0  0  0
    7.3803    3.8224   -2.2508 C   0  0  0  0  0  0  0  0  0  0  0  0
    8.3566    4.5463   -2.9754 C   0  0  0  0  0  0  0  0  0  0  0  0
    8.4274    5.9043   -2.8234 C   0  0  0  0  0  0  0  0  0  0  0  0
    7.4907    6.5808   -1.9233 C   0  0  0  0  0  0  0  0  0  0  0  0
    7.5449    7.7903   -1.7886 O   0  0  0  0  0  0  0  0  0  0  0  0
    6.5733    5.8697   -1.2387 N   0  0  0  0  0  0  0  0  0  0  0  0
    5.6469    6.5572   -0.3358 C   0  0  0  0  0  0  0  0  0  0  0  0
    9.4399    6.6863   -3.5706 C   0  0  0  0  0  0  0  0  0  0  0  0
   10.6976    6.9187   -3.0125 C   0  0  0  0  0  0  0  0  0  0  0  0
   11.6391    7.6432   -3.7170 C   0  0  0  0  0  0  0  0  0  0  0  0
   11.3334    8.1483   -4.9680 C   0  0  0  0  0  0  0  0  0  0  0  0
   10.0865    7.9268   -5.5242 C   0  0  0  0  0  0  0  0  0  0  0  0
    9.1380    7.1986   -4.8330 C   0  0  0  0  0  0  0  0  0  0  0  0
    7.5736    6.9218   -5.5329 Cl  0  0  0  0  0  0  0  0  0  0  0  0
   11.0806    6.2923   -1.4394 Cl  0  0  0  0  0  0  0  0  0  0  0  0
    7.2722    2.4320   -2.3758 C   0  0  0  0  0  0  0  0  0  0  0  0
    6.3594    1.7741   -1.6948 N   0  0  0  0  0  0  0  0  0  0  0  0
    1.4093   -7.0550    2.3291 H   0  0  0  0  0  0  0  0  0  0  0  0
    1.6884   -7.0237    0.5714 H   0  0  0  0  0  0  0  0  0  0  0  0
    2.4210   -8.3051    1.5662 H   0  0  0  0  0  0  0  0  0  0  0  0
    3.8815   -6.6890    2.6648 H   0  0  0  0  0  0  0  0  0  0  0  0
    3.0706   -5.3373    1.8380 H   0  0  0  0  0  0  0  0  0  0  0  0
    3.8726   -8.5942    0.5302 H   0  0  0  0  0  0  0  0  0  0  0  0
    5.2365   -8.0576   -0.4797 H   0  0  0  0  0  0  0  0  0  0  0  0
    6.1185   -9.2527    1.4596 H   0  0  0  0  0  0  0  0  0  0  0  0
    6.5111   -7.5245    1.6256 H   0  0  0  0  0  0  0  0  0  0  0  0
    5.1728   -8.2275    2.5654 H   0  0  0  0  0  0  0  0  0  0  0  0
    2.6941   -6.5745   -0.7673 H   0  0  0  0  0  0  0  0  0  0  0  0
    4.3011   -6.2916   -1.4784 H   0  0  0  0  0  0  0  0  0  0  0  0
    2.8430   -4.3259    0.3433 H   0  0  0  0  0  0  0  0  0  0  0  0
    2.8723   -4.2256   -1.4336 H   0  0  0  0  0  0  0  0  0  0  0  0
    6.7869   -2.3372   -0.3710 H   0  0  0  0  0  0  0  0  0  0  0  0
    6.7405    0.1194   -0.2326 H   0  0  0  0  0  0  0  0  0  0  0  0
    2.4656    0.0398   -0.2977 H   0  0  0  0  0  0  0  0  0  0  0  0
    2.5151   -2.4163   -0.4450 H   0  0  0  0  0  0  0  0  0  0  0  0
    3.8968    2.0746    0.3542 H   0  0  0  0  0  0  0  0  0  0  0  0
    4.8571    4.2442   -0.0181 H   0  0  0  0  0  0  0  0  0  0  0  0
    9.0371    4.0337   -3.6392 H   0  0  0  0  0  0  0  0  0  0  0  0
    6.0820    6.6071    0.6623 H   0  0  0  0  0  0  0  0  0  0  0  0
    5.4636    7.5669   -0.7032 H   0  0  0  0  0  0  0  0  0  0  0  0
    4.7056    6.0091   -0.2948 H   0  0  0  0  0  0  0  0  0  0  0  0
   12.6145    7.8197   -3.2883 H   0  0  0  0  0  0  0  0  0  0  0  0
   12.0715    8.7183   -5.5126 H   0  0  0  0  0  0  0  0  0  0  0  0
    9.8541    8.3239   -6.5014 H   0  0  0  0  0  0  0  0  0  0  0  0
    7.9409    1.8977   -3.0344 H   0  0  0  0  0  0  0  0  0  0  0  0
    4.3047   -6.5187    0.6130 N   0  3  0  0  0  0  0  0  0  0  0  0
    5.1308   -5.9341    0.7858 H   0  0  0  0  0  0  0  0  0  0  0  0
  1  2  1  0  0  0  0
  1 35  1  0  0  0  0
  1 36  1  0  0  0  0
  1 37  1  0  0  0  0
  2 38  1  0  0  0  0
  2 39  1  0  0  0  0
  2 63  1  0  0  0  0
  3  4  1  0  0  0  0
  3 40  1  0  0  0  0
  3 41  1  0  0  0  0
  3 63  1  0  0  0  0
  4 42  1  0  0  0  0
  4 43  1  0  0  0  0
  4 44  1  0  0  0  0
  5  6  1  0  0  0  0
  5 45  1  0  0  0  0
  5 46  1  0  0  0  0
  5 63  1  0  0  0  0
  6  7  1  0  0  0  0
  6 47  1  0  0  0  0
  6 48  1  0  0  0  0
  7  8  1  0  0  0  0
  8 13  2  0  0  0  0
  8  9  1  0  0  0  0
  9 10  2  0  0  0  0
  9 49  1  0  0  0  0
 10 11  1  0  0  0  0
 10 50  1  0  0  0  0
 11 12  2  0  0  0  0
 11 14  1  0  0  0  0
 12 13  1  0  0  0  0
 12 51  1  0  0  0  0
 13 52  1  0  0  0  0
 14 15  1  0  0  0  0
 14 53  1  0  0  0  0
 15 34  2  0  0  0  0
 15 16  1  0  0  0  0
 16 17  2  0  0  0  0
 16 54  1  0  0  0  0
 17 23  1  0  0  0  0
 17 18  1  0  0  0  0
 18 19  1  0  0  0  0
 18 33  2  0  0  0  0
 19 20  2  0  0  0  0
 19 55  1  0  0  0  0
 20 21  1  0  0  0  0
 20 25  1  0  0  0  0
 21 22  2  0  0  0  0
 21 23  1  0  0  0  0
 23 24  1  0  0  0  0
 24 56  1  0  0  0  0
 24 57  1  0  0  0  0
 24 58  1  0  0  0  0
 25 30  2  0  0  0  0
 25 26  1  0  0  0  0
 26 27  2  0  0  0  0
 26 32  1  0  0  0  0
 27 28  1  0  0  0  0
 27 59  1  0  0  0  0
 28 29  2  0  0  0  0
 28 60  1  0  0  0  0
 29 30  1  0  0  0  0
 29 61  1  0  0  0  0
 30 31  1  0  0  0  0
 33 34  1  0  0  0  0
 33 62  1  0  0  0  0
 63 64  1  0  0  0  0
M  CHG  1  63   1
M  END
$$$$
