ZINC03815492
  -OEChem-08230709403D

 66 69  0     0  0  0  0  0  0999 V2000
   -0.8153   -7.4496   -0.3659 C   0  0  0  0  0  0  0  0  0  0  0  0
    0.3035   -7.0440   -1.3276 C   0  0  0  0  0  0  0  0  0  0  0  0
    0.6749   -5.6437   -1.0839 N   0  3  0  0  0  0  0  0  0  0  0  0
    1.7490   -5.2543   -2.0072 C   0  0  0  0  0  0  0  0  0  0  0  0
   -0.4946   -4.7819   -1.3018 C   0  0  0  0  0  0  0  0  0  0  0  0
   -1.0802   -5.0578   -2.6882 C   0  0  0  0  0  0  0  0  0  0  0  0
    1.1416   -5.4948    0.3010 C   0  0  0  0  0  0  0  0  0  0  0  0
    1.4765   -4.0266    0.5713 C   0  0  0  0  0  0  0  0  0  0  0  0
    0.2727   -3.2565    0.5757 O   0  0  0  0  0  0  0  0  0  0  0  0
    0.3948   -1.9214    0.8033 C   0  0  0  0  0  0  0  0  0  0  0  0
   -0.7339   -1.1152    0.8211 C   0  0  0  0  0  0  0  0  0  0  0  0
   -0.6107    0.2408    1.0512 C   0  0  0  0  0  0  0  0  0  0  0  0
    0.6435    0.7973    1.2653 C   0  0  0  0  0  0  0  0  0  0  0  0
    1.7729   -0.0106    1.2478 C   0  0  0  0  0  0  0  0  0  0  0  0
    1.6480   -1.3664    1.0171 C   0  0  0  0  0  0  0  0  0  0  0  0
    0.7694    2.1722    1.4983 N   0  0  0  0  0  0  0  0  0  0  0  0
   -0.2152    2.8480    2.1926 C   0  0  0  0  0  0  0  0  0  0  0  0
   -1.2126    2.1526    2.7287 N   0  0  0  0  0  0  0  0  0  0  0  0
   -2.1778    2.7502    3.4014 C   0  0  0  0  0  0  0  0  0  0  0  0
   -2.1334    4.1457    3.5430 C   0  0  0  0  0  0  0  0  0  0  0  0
   -3.1380    4.8421    4.2528 C   0  0  0  0  0  0  0  0  0  0  0  0
   -3.0496    6.2040    4.3635 C   0  0  0  0  0  0  0  0  0  0  0  0
   -1.9208    6.9037    3.7462 C   0  0  0  0  0  0  0  0  0  0  0  0
   -1.8342    8.1151    3.8401 O   0  0  0  0  0  0  0  0  0  0  0  0
   -0.9778    6.2144    3.0756 N   0  0  0  0  0  0  0  0  0  0  0  0
   -1.0582    4.8496    2.9596 C   0  0  0  0  0  0  0  0  0  0  0  0
   -0.1276    4.1645    2.3041 N   0  0  0  0  0  0  0  0  0  0  0  0
    0.1454    6.9291    2.4642 C   0  0  0  0  0  0  0  0  0  0  0  0
   -4.0867    6.9629    5.1006 C   0  0  0  0  0  0  0  0  0  0  0  0
   -5.2084    7.4504    4.4288 C   0  0  0  0  0  0  0  0  0  0  0  0
   -6.1738    8.1534    5.1227 C   0  0  0  0  0  0  0  0  0  0  0  0
   -6.0257    8.3829    6.4788 C   0  0  0  0  0  0  0  0  0  0  0  0
   -4.9136    7.9069    7.1496 C   0  0  0  0  0  0  0  0  0  0  0  0
   -3.9433    7.1983    6.4685 C   0  0  0  0  0  0  0  0  0  0  0  0
   -2.5481    6.6023    7.3122 Cl  0  0  0  0  0  0  0  0  0  0  0  0
   -5.3928    7.1692    2.7257 Cl  0  0  0  0  0  0  0  0  0  0  0  0
   -0.4690   -7.3391    0.6617 H   0  0  0  0  0  0  0  0  0  0  0  0
   -1.6830   -6.8102   -0.5277 H   0  0  0  0  0  0  0  0  0  0  0  0
   -1.0908   -8.4886   -0.5467 H   0  0  0  0  0  0  0  0  0  0  0  0
   -0.0428   -7.1545   -2.3552 H   0  0  0  0  0  0  0  0  0  0  0  0
    1.1713   -7.6835   -1.1658 H   0  0  0  0  0  0  0  0  0  0  0  0
    2.5994   -5.9239   -1.8785 H   0  0  0  0  0  0  0  0  0  0  0  0
    1.3874   -5.3193   -3.0334 H   0  0  0  0  0  0  0  0  0  0  0  0
    2.0573   -4.2306   -1.7947 H   0  0  0  0  0  0  0  0  0  0  0  0
   -1.2470   -4.9912   -0.5414 H   0  0  0  0  0  0  0  0  0  0  0  0
   -0.1929   -3.7366   -1.2363 H   0  0  0  0  0  0  0  0  0  0  0  0
   -0.3278   -4.8485   -3.4486 H   0  0  0  0  0  0  0  0  0  0  0  0
   -1.3819   -6.1031   -2.7537 H   0  0  0  0  0  0  0  0  0  0  0  0
   -1.9479   -4.4183   -2.8499 H   0  0  0  0  0  0  0  0  0  0  0  0
    2.0326   -6.1044    0.4517 H   0  0  0  0  0  0  0  0  0  0  0  0
    0.3584   -5.8208    0.9854 H   0  0  0  0  0  0  0  0  0  0  0  0
    2.1419   -3.6562   -0.2086 H   0  0  0  0  0  0  0  0  0  0  0  0
    1.9678   -3.9384    1.5402 H   0  0  0  0  0  0  0  0  0  0  0  0
   -1.7092   -1.5481    0.6546 H   0  0  0  0  0  0  0  0  0  0  0  0
   -1.4890    0.8692    1.0603 H   0  0  0  0  0  0  0  0  0  0  0  0
    2.7486    0.4213    1.4146 H   0  0  0  0  0  0  0  0  0  0  0  0
    2.5262   -1.9948    1.0034 H   0  0  0  0  0  0  0  0  0  0  0  0
    1.5479    2.6501    1.1721 H   0  0  0  0  0  0  0  0  0  0  0  0
   -2.9846    2.1774    3.8343 H   0  0  0  0  0  0  0  0  0  0  0  0
   -3.9630    4.3082    4.7008 H   0  0  0  0  0  0  0  0  0  0  0  0
   -0.1158    7.2120    1.4444 H   0  0  0  0  0  0  0  0  0  0  0  0
    0.3652    7.8251    3.0447 H   0  0  0  0  0  0  0  0  0  0  0  0
    1.0225    6.2821    2.4485 H   0  0  0  0  0  0  0  0  0  0  0  0
   -7.0444    8.5277    4.6048 H   0  0  0  0  0  0  0  0  0  0  0  0
   -6.7816    8.9364    7.0160 H   0  0  0  0  0  0  0  0  0  0  0  0
   -4.8036    8.0901    8.2083 H   0  0  0  0  0  0  0  0  0  0  0  0
  1  2  1  0  0  0  0
  1 37  1  0  0  0  0
  1 38  1  0  0  0  0
  1 39  1  0  0  0  0
  2  3  1  0  0  0  0
  2 40  1  0  0  0  0
  2 41  1  0  0  0  0
  3  4  1  0  0  0  0
  3  5  1  0  0  0  0
  3  7  1  0  0  0  0
  4 42  1  0  0  0  0
  4 43  1  0  0  0  0
  4 44  1  0  0  0  0
  5  6  1  0  0  0  0
  5 45  1  0  0  0  0
  5 46  1  0  0  0  0
  6 47  1  0  0  0  0
  6 48  1  0  0  0  0
  6 49  1  0  0  0  0
  7  8  1  0  0  0  0
  7 50  1  0  0  0  0
  7 51  1  0  0  0  0
  8  9  1  0  0  0  0
  8 52  1  0  0  0  0
  8 53  1  0  0  0  0
  9 10  1  0  0  0  0
 10 15  2  0  0  0  0
 10 11  1  0  0  0  0
 11 12  2  0  0  0  0
 11 54  1  0  0  0  0
 12 13  1  0  0  0  0
 12 55  1  0  0  0  0
 13 14  2  0  0  0  0
 13 16  1  0  0  0  0
 14 15  1  0  0  0  0
 14 56  1  0  0  0  0
 15 57  1  0  0  0  0
 16 17  1  0  0  0  0
 16 58  1  0  0  0  0
 17 27  2  0  0  0  0
 17 18  1  0  0  0  0
 18 19  2  0  0  0  0
 19 20  1  0  0  0  0
 19 59  1  0  0  0  0
 20 26  2  0  0  0  0
 20 21  1  0  0  0  0
 21 22  2  0  0  0  0
 21 60  1  0  0  0  0
 22 23  1  0  0  0  0
 22 29  1  0  0  0  0
 23 24  2  0  0  0  0
 23 25  1  0  0  0  0
 25 26  1  0  0  0  0
 25 28  1  0  0  0  0
 26 27  1  0  0  0  0
 28 61  1  0  0  0  0
 28 62  1  0  0  0  0
 28 63  1  0  0  0  0
 29 34  2  0  0  0  0
 29 30  1  0  0  0  0
 30 31  2  0  0  0  0
 30 36  1  0  0  0  0
 31 32  1  0  0  0  0
 31 64  1  0  0  0  0
 32 33  2  0  0  0  0
 32 65  1  0  0  0  0
 33 34  1  0  0  0  0
 33 66  1  0  0  0  0
 34 35  1  0  0  0  0
M  CHG  1   3   1
M  END
$$$$
