ZINC03815558
  -OEChem-08230709403D

 56 59  0     0  0  0  0  0  0999 V2000
    0.0021   -0.0041    0.0020 C   0  0  0  0  0  0  0  0  0  0  0  0
   -0.0178    1.4608    0.0101 N   0  0  0  0  0  0  0  0  0  0  0  0
   -1.2216    2.1269    0.0194 C   0  0  0  0  0  0  0  0  0  0  0  0
   -2.4255    1.4324    0.0320 C   0  0  0  0  0  0  0  0  0  0  0  0
   -3.6131    2.1500    0.0463 C   0  0  0  0  0  0  0  0  0  0  0  0
   -2.5054    4.1825    0.0466 C   0  0  0  0  0  0  0  0  0  0  0  0
   -1.2621    3.5384    0.0322 C   0  0  0  0  0  0  0  0  0  0  0  0
   -0.0566    4.2794    0.0247 C   0  0  0  0  0  0  0  0  0  0  0  0
    1.1365    3.6096    0.0101 C   0  0  0  0  0  0  0  0  0  0  0  0
    1.1430    2.1450    0.0027 C   0  0  0  0  0  0  0  0  0  0  0  0
    2.2020    1.5430   -0.0099 O   0  0  0  0  0  0  0  0  0  0  0  0
    2.4133    4.3610    0.0015 C   0  0  0  0  0  0  0  0  0  0  0  0
    3.0084    4.7175   -1.2093 C   0  0  0  0  0  0  0  0  0  0  0  0
    4.1956    5.4234   -1.2103 C   0  0  0  0  0  0  0  0  0  0  0  0
    4.8007    5.7666   -0.0147 C   0  0  0  0  0  0  0  0  0  0  0  0
    4.2192    5.4109    1.1890 C   0  0  0  0  0  0  0  0  0  0  0  0
    3.0290    4.7103    1.2040 C   0  0  0  0  0  0  0  0  0  0  0  0
    2.3008    4.2649    2.7157 Cl  0  0  0  0  0  0  0  0  0  0  0  0
    2.2543    4.2815   -2.7109 Cl  0  0  0  0  0  0  0  0  0  0  0  0
   -4.8205    1.4669    0.0541 N   0  0  0  0  0  0  0  0  0  0  0  0
   -4.8333    0.0019    0.0468 C   0  0  0  0  0  0  0  0  0  0  0  0
   -6.2801   -0.4955    0.0578 C   0  0  0  0  0  0  0  0  0  0  0  0
   -6.2935   -2.0254    0.0502 C   0  0  0  0  0  0  0  0  0  0  0  0
   -8.3479   -2.1604    1.3262 C   0  0  0  0  0  0  0  0  0  0  0  0
   -9.8065   -2.6224    1.2711 C   0  0  0  0  0  0  0  0  0  0  0  0
   -9.8467   -4.0263    1.0011 O   0  0  0  0  0  0  0  0  0  0  0  0
   -9.2083   -4.3954   -0.2243 C   0  0  0  0  0  0  0  0  0  0  0  0
   -7.7436   -3.9513   -0.1843 C   0  0  0  0  0  0  0  0  0  0  0  0
    1.0345   -0.3534   -0.0097 H   0  0  0  0  0  0  0  0  0  0  0  0
   -0.4983   -0.3791    0.8948 H   0  0  0  0  0  0  0  0  0  0  0  0
   -0.5153   -0.3696   -0.8850 H   0  0  0  0  0  0  0  0  0  0  0  0
   -2.4366    0.3525    0.0263 H   0  0  0  0  0  0  0  0  0  0  0  0
   -2.5521    5.2614    0.0521 H   0  0  0  0  0  0  0  0  0  0  0  0
   -0.0780    5.3592    0.0300 H   0  0  0  0  0  0  0  0  0  0  0  0
    4.6545    5.7045   -2.1467 H   0  0  0  0  0  0  0  0  0  0  0  0
    5.7314    6.3144   -0.0210 H   0  0  0  0  0  0  0  0  0  0  0  0
    4.6967    5.6818    2.1190 H   0  0  0  0  0  0  0  0  0  0  0  0
   -5.6562    1.9591    0.0644 H   0  0  0  0  0  0  0  0  0  0  0  0
   -4.3310   -0.3613   -0.8498 H   0  0  0  0  0  0  0  0  0  0  0  0
   -4.3143   -0.3703    0.9301 H   0  0  0  0  0  0  0  0  0  0  0  0
   -6.7824   -0.1322    0.9544 H   0  0  0  0  0  0  0  0  0  0  0  0
   -6.7990   -0.1232   -0.8255 H   0  0  0  0  0  0  0  0  0  0  0  0
   -5.7912   -2.3887   -0.8464 H   0  0  0  0  0  0  0  0  0  0  0  0
   -5.7745   -2.3977    0.9335 H   0  0  0  0  0  0  0  0  0  0  0  0
   -7.8392   -2.6586    2.1514 H   0  0  0  0  0  0  0  0  0  0  0  0
   -8.3134   -1.0811    1.4749 H   0  0  0  0  0  0  0  0  0  0  0  0
  -10.3290   -2.0845    0.4800 H   0  0  0  0  0  0  0  0  0  0  0  0
  -10.2882   -2.4219    2.2280 H   0  0  0  0  0  0  0  0  0  0  0  0
   -9.7134   -3.9091   -1.0588 H   0  0  0  0  0  0  0  0  0  0  0  0
   -9.2573   -5.4772   -0.3488 H   0  0  0  0  0  0  0  0  0  0  0  0
   -7.2680   -4.1794   -1.1382 H   0  0  0  0  0  0  0  0  0  0  0  0
   -7.2253   -4.4782    0.6168 H   0  0  0  0  0  0  0  0  0  0  0  0
   -3.6891    3.5189    0.0539 N   0  3  0  0  0  0  0  0  0  0  0  0
   -4.5890    4.0130    0.0644 H   0  0  0  0  0  0  0  0  0  0  0  0
   -7.6972   -2.4911    0.0412 N   0  3  0  0  0  0  0  0  0  0  0  0
   -8.2005   -2.0194   -0.7193 H   0  0  0  0  0  0  0  0  0  0  0  0
  1  2  1  0  0  0  0
  1 29  1  0  0  0  0
  1 30  1  0  0  0  0
  1 31  1  0  0  0  0
  2 10  1  0  0  0  0
  2  3  1  0  0  0  0
  3  7  2  0  0  0  0
  3  4  1  0  0  0  0
  4  5  2  0  0  0  0
  4 32  1  0  0  0  0
  5 20  1  0  0  0  0
  5 53  1  0  0  0  0
  6  7  1  0  0  0  0
  6 33  1  0  0  0  0
  6 53  2  0  0  0  0
  7  8  1  0  0  0  0
  8  9  2  0  0  0  0
  8 34  1  0  0  0  0
  9 10  1  0  0  0  0
  9 12  1  0  0  0  0
 10 11  2  0  0  0  0
 12 17  2  0  0  0  0
 12 13  1  0  0  0  0
 13 14  2  0  0  0  0
 13 19  1  0  0  0  0
 14 15  1  0  0  0  0
 14 35  1  0  0  0  0
 15 16  2  0  0  0  0
 15 36  1  0  0  0  0
 16 17  1  0  0  0  0
 16 37  1  0  0  0  0
 17 18  1  0  0  0  0
 20 21  1  0  0  0  0
 20 38  1  0  0  0  0
 21 22  1  0  0  0  0
 21 39  1  0  0  0  0
 21 40  1  0  0  0  0
 22 23  1  0  0  0  0
 22 41  1  0  0  0  0
 22 42  1  0  0  0  0
 23 43  1  0  0  0  0
 23 44  1  0  0  0  0
 23 55  1  0  0  0  0
 24 25  1  0  0  0  0
 24 45  1  0  0  0  0
 24 46  1  0  0  0  0
 24 55  1  0  0  0  0
 25 26  1  0  0  0  0
 25 47  1  0  0  0  0
 25 48  1  0  0  0  0
 26 27  1  0  0  0  0
 27 28  1  0  0  0  0
 27 49  1  0  0  0  0
 27 50  1  0  0  0  0
 28 51  1  0  0  0  0
 28 52  1  0  0  0  0
 28 55  1  0  0  0  0
 53 54  1  0  0  0  0
 55 56  1  0  0  0  0
M  CHG  2  53   1  55   1
M  END
$$$$
