ZINC03815519
  -OEChem-08230709403D

 76 79  0     0  0  0  0  0  0999 V2000
   -0.9215   -6.3936   -1.2736 C   0  0  0  0  0  0  0  0  0  0  0  0
   -0.1097   -6.7753   -0.0341 C   0  0  0  0  0  0  0  0  0  0  0  0
    0.1595   -8.2814   -0.0448 C   0  0  0  0  0  0  0  0  0  0  0  0
   -0.8974   -6.4070    1.2248 C   0  0  0  0  0  0  0  0  0  0  0  0
    1.1639   -6.0515   -0.0425 N   0  0  0  0  0  0  0  0  0  0  0  0
    1.1731   -4.7038   -0.0353 C   0  0  0  0  0  0  0  0  0  0  0  0
    0.1246   -4.0888   -0.0219 O   0  0  0  0  0  0  0  0  0  0  0  0
    2.3449   -4.0378   -0.0430 N   0  0  0  0  0  0  0  0  0  0  0  0
    2.3544   -2.6505   -0.0357 C   0  0  0  0  0  0  0  0  0  0  0  0
    3.5901   -1.9690   -0.0439 C   0  0  0  0  0  0  0  0  0  0  0  0
    3.6040   -0.5833   -0.0361 C   0  0  0  0  0  0  0  0  0  0  0  0
    2.3700    0.0874   -0.0202 C   0  0  0  0  0  0  0  0  0  0  0  0
    2.2875    1.4904   -0.0119 C   0  0  0  0  0  0  0  0  0  0  0  0
    1.0945    2.0497    0.0026 N   0  0  0  0  0  0  0  0  0  0  0  0
   -0.0158    1.3152    0.0093 C   0  0  0  0  0  0  0  0  0  0  0  0
    0.0021   -0.0041    0.0020 N   0  0  0  0  0  0  0  0  0  0  0  0
    1.1664   -0.6651   -0.0127 C   0  0  0  0  0  0  0  0  0  0  0  0
    1.2097   -1.9987   -0.0207 N   0  0  0  0  0  0  0  0  0  0  0  0
   -1.2375    1.9612    0.0185 N   0  0  0  0  0  0  0  0  0  0  0  0
   -1.2920    3.4252    0.0267 C   0  0  0  0  0  0  0  0  0  0  0  0
   -2.7524    3.8812    0.0360 C   0  0  0  0  0  0  0  0  0  0  0  0
   -2.8093    5.4101    0.0446 C   0  0  0  0  0  0  0  0  0  0  0  0
   -4.2697    5.8661    0.0539 C   0  0  0  0  0  0  0  0  0  0  0  0
   -3.7848    7.8741    1.3179 C   0  0  0  0  0  0  0  0  0  0  0  0
   -3.7857    9.4033    1.2545 C   0  0  0  0  0  0  0  0  0  0  0  0
   -5.6961    9.3406   -0.2304 C   0  0  0  0  0  0  0  0  0  0  0  0
   -5.6951    7.8114   -0.1671 C   0  0  0  0  0  0  0  0  0  0  0  0
   -5.2112   11.3486    1.0335 C   0  0  0  0  0  0  0  0  0  0  0  0
    4.8629   -2.7291   -0.0612 C   0  0  0  0  0  0  0  0  0  0  0  0
    5.4489   -3.0863   -1.2756 C   0  0  0  0  0  0  0  0  0  0  0  0
    6.6375   -3.7900   -1.2849 C   0  0  0  0  0  0  0  0  0  0  0  0
    7.2411   -4.1495   -0.0935 C   0  0  0  0  0  0  0  0  0  0  0  0
    6.6621   -3.8033    1.1140 C   0  0  0  0  0  0  0  0  0  0  0  0
    5.4764   -3.0951    1.1369 C   0  0  0  0  0  0  0  0  0  0  0  0
    4.7510   -2.6620    2.6534 Cl  0  0  0  0  0  0  0  0  0  0  0  0
    4.6890   -2.6422   -2.7720 Cl  0  0  0  0  0  0  0  0  0  0  0  0
   -0.3603   -6.6560   -2.1704 H   0  0  0  0  0  0  0  0  0  0  0  0
   -1.8691   -6.9321   -1.2673 H   0  0  0  0  0  0  0  0  0  0  0  0
   -1.1133   -5.3206   -1.2660 H   0  0  0  0  0  0  0  0  0  0  0  0
    0.7378   -8.5534    0.8382 H   0  0  0  0  0  0  0  0  0  0  0  0
   -0.7881   -8.8200   -0.0386 H   0  0  0  0  0  0  0  0  0  0  0  0
    0.7207   -8.5438   -0.9416 H   0  0  0  0  0  0  0  0  0  0  0  0
   -1.0893   -5.3340    1.2324 H   0  0  0  0  0  0  0  0  0  0  0  0
   -1.8451   -6.9455    1.2310 H   0  0  0  0  0  0  0  0  0  0  0  0
   -0.3192   -6.6790    2.1078 H   0  0  0  0  0  0  0  0  0  0  0  0
    2.0006   -6.5422   -0.0531 H   0  0  0  0  0  0  0  0  0  0  0  0
    3.1815   -4.5285   -0.0537 H   0  0  0  0  0  0  0  0  0  0  0  0
    4.5350   -0.0360   -0.0418 H   0  0  0  0  0  0  0  0  0  0  0  0
    3.1815    2.0963   -0.0168 H   0  0  0  0  0  0  0  0  0  0  0  0
   -2.0589    1.4453    0.0195 H   0  0  0  0  0  0  0  0  0  0  0  0
   -0.7878    3.8025    0.9164 H   0  0  0  0  0  0  0  0  0  0  0  0
   -0.7961    3.8122   -0.8635 H   0  0  0  0  0  0  0  0  0  0  0  0
   -3.2565    3.5038   -0.8537 H   0  0  0  0  0  0  0  0  0  0  0  0
   -3.2482    3.4942    0.9262 H   0  0  0  0  0  0  0  0  0  0  0  0
   -2.3051    5.7875    0.9343 H   0  0  0  0  0  0  0  0  0  0  0  0
   -2.3134    5.7971   -0.8456 H   0  0  0  0  0  0  0  0  0  0  0  0
   -4.7738    5.4887   -0.8358 H   0  0  0  0  0  0  0  0  0  0  0  0
   -4.7655    5.4791    0.9441 H   0  0  0  0  0  0  0  0  0  0  0  0
   -4.4046    7.5443    2.1516 H   0  0  0  0  0  0  0  0  0  0  0  0
   -2.7647    7.5166    1.4589 H   0  0  0  0  0  0  0  0  0  0  0  0
   -3.1442    9.7338    0.4377 H   0  0  0  0  0  0  0  0  0  0  0  0
   -3.4130    9.8065    2.1961 H   0  0  0  0  0  0  0  0  0  0  0  0
   -5.0763    9.6704   -1.0642 H   0  0  0  0  0  0  0  0  0  0  0  0
   -6.7161    9.6980   -0.3719 H   0  0  0  0  0  0  0  0  0  0  0  0
   -6.0679    7.4082   -1.1087 H   0  0  0  0  0  0  0  0  0  0  0  0
   -6.3367    7.4808    0.6498 H   0  0  0  0  0  0  0  0  0  0  0  0
   -6.2461   11.6742    0.9291 H   0  0  0  0  0  0  0  0  0  0  0  0
   -4.8059   11.7220    1.9740 H   0  0  0  0  0  0  0  0  0  0  0  0
   -4.6220   11.7387    0.2036 H   0  0  0  0  0  0  0  0  0  0  0  0
    7.0945   -4.0632   -2.2245 H   0  0  0  0  0  0  0  0  0  0  0  0
    8.1683   -4.7032   -0.1061 H   0  0  0  0  0  0  0  0  0  0  0  0
    7.1384   -4.0870    2.0409 H   0  0  0  0  0  0  0  0  0  0  0  0
   -4.3084    7.3441    0.0414 N   0  3  0  0  0  0  0  0  0  0  0  0
   -3.7214    7.6867   -0.7281 H   0  0  0  0  0  0  0  0  0  0  0  0
   -5.1725    9.8706    1.0460 N   0  3  0  0  0  0  0  0  0  0  0  0
   -5.7595    9.5280    1.8156 H   0  0  0  0  0  0  0  0  0  0  0  0
  1  2  1  0  0  0  0
  1 37  1  0  0  0  0
  1 38  1  0  0  0  0
  1 39  1  0  0  0  0
  2  3  1  0  0  0  0
  2  4  1  0  0  0  0
  2  5  1  0  0  0  0
  3 40  1  0  0  0  0
  3 41  1  0  0  0  0
  3 42  1  0  0  0  0
  4 43  1  0  0  0  0
  4 44  1  0  0  0  0
  4 45  1  0  0  0  0
  5  6  1  0  0  0  0
  5 46  1  0  0  0  0
  6  7  2  0  0  0  0
  6  8  1  0  0  0  0
  8  9  1  0  0  0  0
  8 47  1  0  0  0  0
  9 18  2  0  0  0  0
  9 10  1  0  0  0  0
 10 11  2  0  0  0  0
 10 29  1  0  0  0  0
 11 12  1  0  0  0  0
 11 48  1  0  0  0  0
 12 17  2  0  0  0  0
 12 13  1  0  0  0  0
 13 14  2  0  0  0  0
 13 49  1  0  0  0  0
 14 15  1  0  0  0  0
 15 16  2  0  0  0  0
 15 19  1  0  0  0  0
 16 17  1  0  0  0  0
 17 18  1  0  0  0  0
 19 20  1  0  0  0  0
 19 50  1  0  0  0  0
 20 21  1  0  0  0  0
 20 51  1  0  0  0  0
 20 52  1  0  0  0  0
 21 22  1  0  0  0  0
 21 53  1  0  0  0  0
 21 54  1  0  0  0  0
 22 23  1  0  0  0  0
 22 55  1  0  0  0  0
 22 56  1  0  0  0  0
 23 57  1  0  0  0  0
 23 58  1  0  0  0  0
 23 73  1  0  0  0  0
 24 25  1  0  0  0  0
 24 59  1  0  0  0  0
 24 60  1  0  0  0  0
 24 73  1  0  0  0  0
 25 61  1  0  0  0  0
 25 62  1  0  0  0  0
 25 75  1  0  0  0  0
 26 27  1  0  0  0  0
 26 63  1  0  0  0  0
 26 64  1  0  0  0  0
 26 75  1  0  0  0  0
 27 65  1  0  0  0  0
 27 66  1  0  0  0  0
 27 73  1  0  0  0  0
 28 67  1  0  0  0  0
 28 68  1  0  0  0  0
 28 69  1  0  0  0  0
 28 75  1  0  0  0  0
 29 34  2  0  0  0  0
 29 30  1  0  0  0  0
 30 31  2  0  0  0  0
 30 36  1  0  0  0  0
 31 32  1  0  0  0  0
 31 70  1  0  0  0  0
 32 33  2  0  0  0  0
 32 71  1  0  0  0  0
 33 34  1  0  0  0  0
 33 72  1  0  0  0  0
 34 35  1  0  0  0  0
 73 74  1  0  0  0  0
 75 76  1  0  0  0  0
M  CHG  2  73   1  75   1
M  END
$$$$
