ZINC03815486
  -OEChem-08230709403D

 40 42  0     0  0  0  0  0  0999 V2000
    1.1689   -2.4139    0.6244 C   0  0  0  0  0  0  0  0  0  0  0  0
    1.9771   -1.5446   -0.3041 C   0  0  0  0  0  0  0  0  0  0  0  0
    3.3537   -1.6450   -0.3249 C   0  0  0  0  0  0  0  0  0  0  0  0
    4.0954   -0.8462   -1.1789 C   0  0  0  0  0  0  0  0  0  0  0  0
    3.4720    0.0571   -2.0161 C   0  0  0  0  0  0  0  0  0  0  0  0
    2.0865    0.1725   -2.0100 C   0  0  0  0  0  0  0  0  0  0  0  0
    1.3391   -0.6380   -1.1441 C   0  0  0  0  0  0  0  0  0  0  0  0
   -0.0811   -0.2877   -1.3674 C   0  0  0  0  0  0  0  0  0  0  0  0
   -1.1882   -0.8254   -0.7391 C   0  0  0  0  0  0  0  0  0  0  0  0
   -2.4629   -0.2610   -0.9515 C   0  0  0  0  0  0  0  0  0  0  0  0
   -3.6685   -0.9449   -0.9821 C   0  0  0  0  0  0  0  0  0  0  0  0
   -4.6693   -0.0001   -1.2162 C   0  0  0  0  0  0  0  0  0  0  0  0
   -4.0785    1.2153   -1.3315 C   0  0  0  0  0  0  0  0  0  0  0  0
   -2.7387    1.0713   -1.1729 N   0  0  0  0  0  0  0  0  0  0  0  0
   -2.0843    1.7864   -1.2097 H   0  0  0  0  0  0  0  0  0  0  0  0
   -6.1456   -0.2819   -1.3267 C   0  0  0  0  0  0  0  0  0  0  0  0
   -3.8623   -2.4276   -0.7944 C   0  0  0  0  0  0  0  0  0  0  0  0
   -4.0770   -2.7300    0.6899 C   0  0  0  0  0  0  0  0  0  0  0  0
   -4.2709   -4.2127    0.8776 C   0  0  0  0  0  0  0  0  0  0  0  0
   -4.2404   -4.9516   -0.0779 O   0  0  0  0  0  0  0  0  0  0  0  0
   -0.0593    0.7556   -2.4006 C   0  0  0  0  0  0  0  0  0  0  0  0
   -1.0329    1.3139   -2.8746 O   0  0  0  0  0  0  0  0  0  0  0  0
    1.2221    0.9825   -2.7359 N   0  0  0  0  0  0  0  0  0  0  0  0
    0.8245   -3.2975    0.0871 H   0  0  0  0  0  0  0  0  0  0  0  0
    1.7887   -2.7198    1.4672 H   0  0  0  0  0  0  0  0  0  0  0  0
    0.3089   -1.8531    0.9906 H   0  0  0  0  0  0  0  0  0  0  0  0
    3.8530   -2.3475    0.3260 H   0  0  0  0  0  0  0  0  0  0  0  0
    5.1721   -0.9303   -1.1897 H   0  0  0  0  0  0  0  0  0  0  0  0
    4.0614    0.6751   -2.6771 H   0  0  0  0  0  0  0  0  0  0  0  0
   -1.0772   -1.6779   -0.0854 H   0  0  0  0  0  0  0  0  0  0  0  0
   -4.5915    2.1470   -1.5192 H   0  0  0  0  0  0  0  0  0  0  0  0
   -6.3977   -0.4967   -2.3652 H   0  0  0  0  0  0  0  0  0  0  0  0
   -6.3989   -1.1414   -0.7061 H   0  0  0  0  0  0  0  0  0  0  0  0
   -6.7079    0.5886   -0.9889 H   0  0  0  0  0  0  0  0  0  0  0  0
   -4.7338   -2.7547   -1.3616 H   0  0  0  0  0  0  0  0  0  0  0  0
   -2.9782   -2.9573   -1.1490 H   0  0  0  0  0  0  0  0  0  0  0  0
   -3.2056   -2.4029    1.2571 H   0  0  0  0  0  0  0  0  0  0  0  0
   -4.9611   -2.2002    1.0445 H   0  0  0  0  0  0  0  0  0  0  0  0
    1.5071    1.6295   -3.4001 H   0  0  0  0  0  0  0  0  0  0  0  0
   -4.4773   -4.7123    2.1062 O   0  5  0  0  0  0  0  0  0  0  0  0
  1  2  1  0  0  0  0
  1 24  1  0  0  0  0
  1 25  1  0  0  0  0
  1 26  1  0  0  0  0
  2  7  2  0  0  0  0
  2  3  1  0  0  0  0
  3  4  2  0  0  0  0
  3 27  1  0  0  0  0
  4  5  1  0  0  0  0
  4 28  1  0  0  0  0
  5  6  2  0  0  0  0
  5 29  1  0  0  0  0
  6 23  1  0  0  0  0
  6  7  1  0  0  0  0
  7  8  1  0  0  0  0
  8  9  2  0  0  0  0
  8 21  1  0  0  0  0
  9 10  1  0  0  0  0
  9 30  1  0  0  0  0
 10 14  1  0  0  0  0
 10 11  2  0  0  0  0
 11 12  1  0  0  0  0
 11 17  1  0  0  0  0
 12 13  2  0  0  0  0
 12 16  1  0  0  0  0
 13 14  1  0  0  0  0
 13 31  1  0  0  0  0
 14 15  1  0  0  0  0
 16 32  1  0  0  0  0
 16 33  1  0  0  0  0
 16 34  1  0  0  0  0
 17 18  1  0  0  0  0
 17 35  1  0  0  0  0
 17 36  1  0  0  0  0
 18 19  1  0  0  0  0
 18 37  1  0  0  0  0
 18 38  1  0  0  0  0
 19 20  2  0  0  0  0
 19 40  1  0  0  0  0
 21 22  2  0  0  0  0
 21 23  1  0  0  0  0
 23 39  1  0  0  0  0
M  CHG  1  40  -1
M  END
$$$$
