ZINC03815498
  -OEChem-08230709403D

 62 66  0     0  0  0  0  0  0999 V2000
   -1.5916    1.6564    3.1282 C   0  0  0  0  0  0  0  0  0  0  0  0
   -1.8362    1.2038    0.7617 C   0  0  0  0  0  0  0  0  0  0  0  0
   -2.3581    1.7772   -0.5578 C   0  0  0  0  0  0  0  0  0  0  0  0
   -1.6329    3.0162   -0.8714 N   0  0  0  0  0  0  0  0  0  0  0  0
   -1.8095    4.0109    0.1958 C   0  0  0  0  0  0  0  0  0  0  0  0
   -1.2876    3.4375    1.5154 C   0  0  0  0  0  0  0  0  0  0  0  0
   -2.0333    3.5322   -2.1091 C   0  0  0  0  0  0  0  0  0  0  0  0
   -2.9958    2.8691   -2.8592 C   0  0  0  0  0  0  0  0  0  0  0  0
   -3.3950    3.3813   -4.0777 C   0  0  0  0  0  0  0  0  0  0  0  0
   -2.8256    4.5530   -4.5586 C   0  0  0  0  0  0  0  0  0  0  0  0
   -1.8594    5.2132   -3.8109 C   0  0  0  0  0  0  0  0  0  0  0  0
   -1.4642    4.7042   -2.5898 C   0  0  0  0  0  0  0  0  0  0  0  0
   -3.2261    5.0692   -5.7976 N   0  0  0  0  0  0  0  0  0  0  0  0
   -3.5863    4.2120   -6.8190 C   0  0  0  0  0  0  0  0  0  0  0  0
   -3.4318    2.9043   -6.6404 N   0  0  0  0  0  0  0  0  0  0  0  0
   -3.7649    2.0413   -7.5830 C   0  0  0  0  0  0  0  0  0  0  0  0
   -4.2781    2.5355   -8.7879 C   0  0  0  0  0  0  0  0  0  0  0  0
   -4.6668    1.6523   -9.8830 C   0  0  0  0  0  0  0  0  0  0  0  0
   -5.1565    2.2130  -11.0198 C   0  0  0  0  0  0  0  0  0  0  0  0
   -5.2806    3.6133  -11.1228 C   0  0  0  0  0  0  0  0  0  0  0  0
   -5.7223    4.0950  -12.1515 O   0  0  0  0  0  0  0  0  0  0  0  0
   -4.9246    4.4324  -10.1173 N   0  0  0  0  0  0  0  0  0  0  0  0
   -4.4232    3.9314   -8.9438 C   0  0  0  0  0  0  0  0  0  0  0  0
   -4.0675    4.7251   -7.9415 N   0  0  0  0  0  0  0  0  0  0  0  0
   -5.0753    5.8807  -10.2781 C   0  0  0  0  0  0  0  0  0  0  0  0
   -6.5463    6.2152  -10.5336 C   0  0  0  0  0  0  0  0  0  0  0  0
   -6.7037    7.7278  -10.7015 C   0  0  0  0  0  0  0  0  0  0  0  0
   -5.8600    8.1997  -11.8874 C   0  0  0  0  0  0  0  0  0  0  0  0
   -4.3890    7.8653  -11.6319 C   0  0  0  0  0  0  0  0  0  0  0  0
   -4.2316    6.3527  -11.4640 C   0  0  0  0  0  0  0  0  0  0  0  0
   -0.5392    1.3765    3.0815 H   0  0  0  0  0  0  0  0  0  0  0  0
   -1.7325    2.4128    3.9003 H   0  0  0  0  0  0  0  0  0  0  0  0
   -2.1910    0.7777    3.3667 H   0  0  0  0  0  0  0  0  0  0  0  0
   -2.3926    0.3002    1.0110 H   0  0  0  0  0  0  0  0  0  0  0  0
   -0.7780    0.9628    0.6602 H   0  0  0  0  0  0  0  0  0  0  0  0
   -2.2016    1.0521   -1.3566 H   0  0  0  0  0  0  0  0  0  0  0  0
   -3.4226    1.9924   -0.4650 H   0  0  0  0  0  0  0  0  0  0  0  0
   -1.2531    4.9144   -0.0534 H   0  0  0  0  0  0  0  0  0  0  0  0
   -2.8677    4.2518    0.2969 H   0  0  0  0  0  0  0  0  0  0  0  0
   -0.2231    3.2223    1.4226 H   0  0  0  0  0  0  0  0  0  0  0  0
   -1.4437    4.1627    2.3140 H   0  0  0  0  0  0  0  0  0  0  0  0
   -3.4349    1.9551   -2.4876 H   0  0  0  0  0  0  0  0  0  0  0  0
   -4.1470    2.8682   -4.6589 H   0  0  0  0  0  0  0  0  0  0  0  0
   -1.4168    6.1247   -4.1848 H   0  0  0  0  0  0  0  0  0  0  0  0
   -0.7127    5.2177   -2.0084 H   0  0  0  0  0  0  0  0  0  0  0  0
   -3.2505    6.0286   -5.9383 H   0  0  0  0  0  0  0  0  0  0  0  0
   -3.6401    0.9795   -7.4295 H   0  0  0  0  0  0  0  0  0  0  0  0
   -4.5678    0.5807   -9.7922 H   0  0  0  0  0  0  0  0  0  0  0  0
   -5.4519    1.5840  -11.8465 H   0  0  0  0  0  0  0  0  0  0  0  0
   -4.7406    6.3838   -9.3709 H   0  0  0  0  0  0  0  0  0  0  0  0
   -6.8811    5.7121  -11.4407 H   0  0  0  0  0  0  0  0  0  0  0  0
   -7.1474    5.8789   -9.6887 H   0  0  0  0  0  0  0  0  0  0  0  0
   -6.3689    8.2308   -9.7944 H   0  0  0  0  0  0  0  0  0  0  0  0
   -7.7516    7.9660  -10.8835 H   0  0  0  0  0  0  0  0  0  0  0  0
   -5.9721    9.2773  -12.0071 H   0  0  0  0  0  0  0  0  0  0  0  0
   -6.1947    7.6967  -12.7946 H   0  0  0  0  0  0  0  0  0  0  0  0
   -4.0542    8.3684  -10.7248 H   0  0  0  0  0  0  0  0  0  0  0  0
   -3.7879    8.2015  -12.4768 H   0  0  0  0  0  0  0  0  0  0  0  0
   -3.1836    6.1144  -11.2820 H   0  0  0  0  0  0  0  0  0  0  0  0
   -4.5664    5.8496  -12.3711 H   0  0  0  0  0  0  0  0  0  0  0  0
   -2.0397    2.2044    1.8301 N   0  3  0  0  0  0  0  0  0  0  0  0
   -3.0397    2.4296    1.8905 H   0  0  0  0  0  0  0  0  0  0  0  0
  1 31  1  0  0  0  0
  1 32  1  0  0  0  0
  1 33  1  0  0  0  0
  1 61  1  0  0  0  0
  2  3  1  0  0  0  0
  2 34  1  0  0  0  0
  2 35  1  0  0  0  0
  2 61  1  0  0  0  0
  3  4  1  0  0  0  0
  3 36  1  0  0  0  0
  3 37  1  0  0  0  0
  4  5  1  0  0  0  0
  4  7  1  0  0  0  0
  5  6  1  0  0  0  0
  5 38  1  0  0  0  0
  5 39  1  0  0  0  0
  6 40  1  0  0  0  0
  6 41  1  0  0  0  0
  6 61  1  0  0  0  0
  7 12  2  0  0  0  0
  7  8  1  0  0  0  0
  8  9  2  0  0  0  0
  8 42  1  0  0  0  0
  9 10  1  0  0  0  0
  9 43  1  0  0  0  0
 10 11  2  0  0  0  0
 10 13  1  0  0  0  0
 11 12  1  0  0  0  0
 11 44  1  0  0  0  0
 12 45  1  0  0  0  0
 13 14  1  0  0  0  0
 13 46  1  0  0  0  0
 14 24  2  0  0  0  0
 14 15  1  0  0  0  0
 15 16  2  0  0  0  0
 16 17  1  0  0  0  0
 16 47  1  0  0  0  0
 17 23  2  0  0  0  0
 17 18  1  0  0  0  0
 18 19  2  0  0  0  0
 18 48  1  0  0  0  0
 19 20  1  0  0  0  0
 19 49  1  0  0  0  0
 20 21  2  0  0  0  0
 20 22  1  0  0  0  0
 22 23  1  0  0  0  0
 22 25  1  0  0  0  0
 23 24  1  0  0  0  0
 25 30  1  0  0  0  0
 25 26  1  0  0  0  0
 25 50  1  0  0  0  0
 26 27  1  0  0  0  0
 26 51  1  0  0  0  0
 26 52  1  0  0  0  0
 27 28  1  0  0  0  0
 27 53  1  0  0  0  0
 27 54  1  0  0  0  0
 28 29  1  0  0  0  0
 28 55  1  0  0  0  0
 28 56  1  0  0  0  0
 29 30  1  0  0  0  0
 29 57  1  0  0  0  0
 29 58  1  0  0  0  0
 30 59  1  0  0  0  0
 30 60  1  0  0  0  0
 61 62  1  0  0  0  0
M  CHG  1  61   1
M  END
$$$$
