ZINC03815552
  -OEChem-08230709403D

 42 44  0     0  0  0  0  0  0999 V2000
    4.4167    7.5322   -1.0306 C   0  0  0  0  0  0  0  0  0  0  0  0
    5.0479    6.3437   -0.3523 C   0  0  0  0  0  0  0  0  0  0  0  0
    6.4023    6.1796   -0.0563 C   0  0  0  0  0  0  0  0  0  0  0  0
    6.5549    4.9769    0.5520 C   0  0  0  0  0  0  0  0  0  0  0  0
    5.3419    4.3781    0.6557 N   0  0  0  0  0  0  0  0  0  0  0  0
    5.1711    3.5108    1.0551 H   0  0  0  0  0  0  0  0  0  0  0  0
    4.3933    5.2064    0.0953 C   0  0  0  0  0  0  0  0  0  0  0  0
    3.0104    4.9474    0.0001 C   0  0  0  0  0  0  0  0  0  0  0  0
    2.5610    3.6543   -0.1880 C   0  0  0  0  0  0  0  0  0  0  0  0
    1.1614    3.1748   -0.1594 C   0  0  0  0  0  0  0  0  0  0  0  0
   -0.0599    3.8080    0.0482 C   0  0  0  0  0  0  0  0  0  0  0  0
   -1.2268    3.0720    0.0137 C   0  0  0  0  0  0  0  0  0  0  0  0
   -1.1816    1.7094   -0.2315 C   0  0  0  0  0  0  0  0  0  0  0  0
    0.0250    1.0709   -0.4334 C   0  0  0  0  0  0  0  0  0  0  0  0
    1.2116    1.7955   -0.4029 C   0  0  0  0  0  0  0  0  0  0  0  0
    2.5355    1.4108   -0.5755 N   0  0  0  0  0  0  0  0  0  0  0  0
    3.3689    2.4587   -0.4602 C   0  0  0  0  0  0  0  0  0  0  0  0
    4.5823    2.4230   -0.5638 O   0  0  0  0  0  0  0  0  0  0  0  0
   -2.7768    3.8678    0.2758 S   0  0  0  0  0  0  0  0  0  0  0  0
   -3.6749    2.8666    0.7346 O   0  0  0  0  0  0  0  0  0  0  0  0
   -2.5068    5.0479    1.0199 O   0  0  0  0  0  0  0  0  0  0  0  0
   -3.3318    4.3587   -1.2052 N   0  0  0  0  0  0  0  0  0  0  0  0
    7.5014    7.1652   -0.3592 C   0  0  0  0  0  0  0  0  0  0  0  0
    7.5848    8.1980    0.7665 C   0  0  0  0  0  0  0  0  0  0  0  0
    8.6838    9.1837    0.4635 C   0  0  0  0  0  0  0  0  0  0  0  0
    9.3336    9.0715   -0.5489 O   0  0  0  0  0  0  0  0  0  0  0  0
    4.1185    8.2633   -0.2792 H   0  0  0  0  0  0  0  0  0  0  0  0
    5.1358    7.9853   -1.7131 H   0  0  0  0  0  0  0  0  0  0  0  0
    3.5394    7.2076   -1.5901 H   0  0  0  0  0  0  0  0  0  0  0  0
    7.4899    4.5650    0.9019 H   0  0  0  0  0  0  0  0  0  0  0  0
    2.3025    5.7597    0.0743 H   0  0  0  0  0  0  0  0  0  0  0  0
   -0.0945    4.8710    0.2359 H   0  0  0  0  0  0  0  0  0  0  0  0
   -2.0992    1.1407   -0.2614 H   0  0  0  0  0  0  0  0  0  0  0  0
    0.0475    0.0074   -0.6198 H   0  0  0  0  0  0  0  0  0  0  0  0
    2.8217    0.5018   -0.7562 H   0  0  0  0  0  0  0  0  0  0  0  0
   -2.8079    4.1824   -2.0022 H   0  0  0  0  0  0  0  0  0  0  0  0
   -4.1808    4.8225   -1.2756 H   0  0  0  0  0  0  0  0  0  0  0  0
    8.4514    6.6369   -0.4387 H   0  0  0  0  0  0  0  0  0  0  0  0
    7.2868    7.6706   -1.3008 H   0  0  0  0  0  0  0  0  0  0  0  0
    6.6347    8.7264    0.8460 H   0  0  0  0  0  0  0  0  0  0  0  0
    7.7994    7.6926    1.7081 H   0  0  0  0  0  0  0  0  0  0  0  0
    8.9407   10.1861    1.3184 O   0  5  0  0  0  0  0  0  0  0  0  0
  1  2  1  0  0  0  0
  1 27  1  0  0  0  0
  1 28  1  0  0  0  0
  1 29  1  0  0  0  0
  2  7  2  0  0  0  0
  2  3  1  0  0  0  0
  3  4  2  0  0  0  0
  3 23  1  0  0  0  0
  4  5  1  0  0  0  0
  4 30  1  0  0  0  0
  5  6  1  0  0  0  0
  5  7  1  0  0  0  0
  7  8  1  0  0  0  0
  8  9  2  0  0  0  0
  8 31  1  0  0  0  0
  9 17  1  0  0  0  0
  9 10  1  0  0  0  0
 10 15  2  0  0  0  0
 10 11  1  0  0  0  0
 11 12  2  0  0  0  0
 11 32  1  0  0  0  0
 12 13  1  0  0  0  0
 12 19  1  0  0  0  0
 13 14  2  0  0  0  0
 13 33  1  0  0  0  0
 14 15  1  0  0  0  0
 14 34  1  0  0  0  0
 15 16  1  0  0  0  0
 16 17  1  0  0  0  0
 16 35  1  0  0  0  0
 17 18  2  0  0  0  0
 19 20  2  0  0  0  0
 19 21  2  0  0  0  0
 19 22  1  0  0  0  0
 22 36  1  0  0  0  0
 22 37  1  0  0  0  0
 23 24  1  0  0  0  0
 23 38  1  0  0  0  0
 23 39  1  0  0  0  0
 24 25  1  0  0  0  0
 24 40  1  0  0  0  0
 24 41  1  0  0  0  0
 25 26  2  0  0  0  0
 25 42  1  0  0  0  0
M  CHG  1  42  -1
M  END
$$$$
