ZINC03815499
  -OEChem-08230709403D

 51 54  0     0  0  0  0  0  0999 V2000
    2.0709    8.2772    0.4276 C   0  0  0  0  0  0  0  0  0  0  0  0
    3.3654    7.5914    0.4148 N   0  0  0  0  0  0  0  0  0  0  0  0
    3.4085    6.2243    0.3059 C   0  0  0  0  0  0  0  0  0  0  0  0
    4.6476    5.5480    0.2920 C   0  0  0  0  0  0  0  0  0  0  0  0
    5.8559    6.2749    0.3904 C   0  0  0  0  0  0  0  0  0  0  0  0
    5.8030    7.6389    0.4978 C   0  0  0  0  0  0  0  0  0  0  0  0
    4.5011    8.3093    0.5096 C   0  0  0  0  0  0  0  0  0  0  0  0
    4.4450    9.5224    0.6053 O   0  0  0  0  0  0  0  0  0  0  0  0
    7.0517    8.4294    0.6022 C   0  0  0  0  0  0  0  0  0  0  0  0
    7.6001    8.7111    1.8540 C   0  0  0  0  0  0  0  0  0  0  0  0
    8.7666    9.4453    1.9441 C   0  0  0  0  0  0  0  0  0  0  0  0
    9.3860    9.9087    0.7974 C   0  0  0  0  0  0  0  0  0  0  0  0
    8.8450    9.6370   -0.4464 C   0  0  0  0  0  0  0  0  0  0  0  0
    7.6814    8.9002   -0.5507 C   0  0  0  0  0  0  0  0  0  0  0  0
    7.0034    8.5613   -2.1124 Cl  0  0  0  0  0  0  0  0  0  0  0  0
    6.8210    8.1355    3.2946 Cl  0  0  0  0  0  0  0  0  0  0  0  0
    4.6477    4.1496    0.1787 C   0  0  0  0  0  0  0  0  0  0  0  0
    3.4895    3.5229    0.0897 N   0  0  0  0  0  0  0  0  0  0  0  0
    2.3421    4.1926    0.1060 C   0  0  0  0  0  0  0  0  0  0  0  0
    2.2918    5.5122    0.2062 N   0  0  0  0  0  0  0  0  0  0  0  0
    1.1585    3.4870    0.0093 N   0  0  0  0  0  0  0  0  0  0  0  0
    1.1757    2.0869    0.0133 C   0  0  0  0  0  0  0  0  0  0  0  0
    2.1234    1.4060    0.7660 C   0  0  0  0  0  0  0  0  0  0  0  0
    2.1394    0.0252    0.7698 C   0  0  0  0  0  0  0  0  0  0  0  0
    1.2089   -0.6817    0.0223 C   0  0  0  0  0  0  0  0  0  0  0  0
    0.2619   -0.0022   -0.7299 C   0  0  0  0  0  0  0  0  0  0  0  0
    0.2448    1.3786   -0.7351 C   0  0  0  0  0  0  0  0  0  0  0  0
    1.2247   -2.0414    0.0273 O   0  0  0  0  0  0  0  0  0  0  0  0
    0.2377   -2.7046   -0.7652 C   0  0  0  0  0  0  0  0  0  0  0  0
    0.4120   -4.2190   -0.6345 C   0  0  0  0  0  0  0  0  0  0  0  0
    1.7162    8.3647    1.4546 H   0  0  0  0  0  0  0  0  0  0  0  0
    2.1823    9.2718   -0.0042 H   0  0  0  0  0  0  0  0  0  0  0  0
    1.3510    7.7055   -0.1580 H   0  0  0  0  0  0  0  0  0  0  0  0
    6.8065    5.7624    0.3799 H   0  0  0  0  0  0  0  0  0  0  0  0
    9.1939    9.6612    2.9121 H   0  0  0  0  0  0  0  0  0  0  0  0
   10.2958   10.4856    0.8735 H   0  0  0  0  0  0  0  0  0  0  0  0
    9.3333   10.0020   -1.3378 H   0  0  0  0  0  0  0  0  0  0  0  0
    5.5758    3.5975    0.1643 H   0  0  0  0  0  0  0  0  0  0  0  0
    0.3154    3.9615   -0.0615 H   0  0  0  0  0  0  0  0  0  0  0  0
    2.8449    1.9561    1.3519 H   0  0  0  0  0  0  0  0  0  0  0  0
    2.8763   -0.5046    1.3552 H   0  0  0  0  0  0  0  0  0  0  0  0
   -0.4620   -0.5533   -1.3119 H   0  0  0  0  0  0  0  0  0  0  0  0
   -0.4923    1.9074   -1.3211 H   0  0  0  0  0  0  0  0  0  0  0  0
   -0.7564   -2.4221   -0.4187 H   0  0  0  0  0  0  0  0  0  0  0  0
    0.3547   -2.4142   -1.8092 H   0  0  0  0  0  0  0  0  0  0  0  0
   -0.2820   -4.7240   -1.3065 H   0  0  0  0  0  0  0  0  0  0  0  0
    1.4344   -4.4911   -0.8966 H   0  0  0  0  0  0  0  0  0  0  0  0
   -0.7831   -4.3276    1.0384 H   0  0  0  0  0  0  0  0  0  0  0  0
    0.2451   -5.6228    0.8621 H   0  0  0  0  0  0  0  0  0  0  0  0
    0.1548   -4.6131    0.7619 N   0  3  0  0  0  0  0  0  0  0  0  0
    0.8391   -4.1532    1.3739 H   0  0  0  0  0  0  0  0  0  0  0  0
  1  2  1  0  0  0  0
  1 31  1  0  0  0  0
  1 32  1  0  0  0  0
  1 33  1  0  0  0  0
  2  7  1  0  0  0  0
  2  3  1  0  0  0  0
  3 20  2  0  0  0  0
  3  4  1  0  0  0  0
  4  5  1  0  0  0  0
  4 17  2  0  0  0  0
  5  6  2  0  0  0  0
  5 34  1  0  0  0  0
  6  7  1  0  0  0  0
  6  9  1  0  0  0  0
  7  8  2  0  0  0  0
  9 14  2  0  0  0  0
  9 10  1  0  0  0  0
 10 11  2  0  0  0  0
 10 16  1  0  0  0  0
 11 12  1  0  0  0  0
 11 35  1  0  0  0  0
 12 13  2  0  0  0  0
 12 36  1  0  0  0  0
 13 14  1  0  0  0  0
 13 37  1  0  0  0  0
 14 15  1  0  0  0  0
 17 18  1  0  0  0  0
 17 38  1  0  0  0  0
 18 19  2  0  0  0  0
 19 20  1  0  0  0  0
 19 21  1  0  0  0  0
 21 22  1  0  0  0  0
 21 39  1  0  0  0  0
 22 27  2  0  0  0  0
 22 23  1  0  0  0  0
 23 24  2  0  0  0  0
 23 40  1  0  0  0  0
 24 25  1  0  0  0  0
 24 41  1  0  0  0  0
 25 26  2  0  0  0  0
 25 28  1  0  0  0  0
 26 27  1  0  0  0  0
 26 42  1  0  0  0  0
 27 43  1  0  0  0  0
 28 29  1  0  0  0  0
 29 30  1  0  0  0  0
 29 44  1  0  0  0  0
 29 45  1  0  0  0  0
 30 46  1  0  0  0  0
 30 47  1  0  0  0  0
 30 50  1  0  0  0  0
 48 50  1  0  0  0  0
 49 50  1  0  0  0  0
 50 51  1  0  0  0  0
M  CHG  1  50   1
M  END
$$$$
