ZINC03833822
  -OEChem-08230709403D

 56 59  0     1  0  0  0  0  0999 V2000
   -0.9905   -2.7188   -0.0223 C   0  0  0  0  0  0  0  0  0  0  0  0
   -1.6780   -2.6584    1.3431 C   0  0  2  0  0  0  0  0  0  0  0  0
   -1.1056   -3.8072    2.1370 C   0  0  0  0  0  0  0  0  0  0  0  0
   -2.1160   -4.3672    3.1374 C   0  0  0  0  0  0  0  0  0  0  0  0
   -3.3708   -4.7324    2.3667 C   0  0  0  0  0  0  0  0  0  0  0  0
   -3.8772   -5.8321    2.4466 O   0  0  0  0  0  0  0  0  0  0  0  0
   -3.9366   -3.6744    1.5177 C   0  0  0  0  0  0  0  0  0  0  0  0
   -3.1357   -2.7145    1.0634 C   0  0  0  0  0  0  0  0  0  0  0  0
   -3.7317   -1.5985    0.2221 C   0  0  0  0  0  0  0  0  0  0  0  0
   -3.3264   -0.2663    0.8634 C   0  0  0  0  0  0  0  0  0  0  0  0
   -1.8058   -0.1952    1.0037 C   0  0  2  0  0  0  0  0  0  0  0  0
   -1.3417   -0.3172    0.0250 H   0  0  0  0  0  0  0  0  0  0  0  0
   -1.3141   -1.3032    1.9507 C   0  0  2  0  0  0  0  0  0  0  0  0
   -1.8206   -1.2061    2.9110 H   0  0  0  0  0  0  0  0  0  0  0  0
    0.1939   -1.2290    2.1676 C   0  0  2  0  0  0  0  0  0  0  0  0
    0.4818   -1.9698    2.9135 H   0  0  0  0  0  0  0  0  0  0  0  0
    0.6296    0.1639    2.6499 C   0  0  0  0  0  0  0  0  0  0  0  0
    0.1648    1.1645    1.6094 C   0  0  1  0  0  0  0  0  0  0  0  0
   -1.3875    1.1339    1.6042 C   0  0  1  0  0  0  0  0  0  0  0  0
   -1.7740    1.2319    2.6187 H   0  0  0  0  0  0  0  0  0  0  0  0
   -1.7195    2.3744    0.7673 C   0  0  0  0  0  0  0  0  0  0  0  0
   -0.7026    3.4271    1.2867 C   0  0  0  0  0  0  0  0  0  0  0  0
    0.4890    2.6297    1.8815 C   0  0  2  0  0  0  0  0  0  0  0  0
    1.7740    3.0162    1.1956 C   0  0  0  0  0  0  0  0  0  0  0  0
    1.7456    3.5095    0.0937 O   0  0  0  0  0  0  0  0  0  0  0  0
    3.0945    2.7870    1.8847 C   0  0  0  0  0  0  0  0  0  0  0  0
    4.1568    3.2318    1.0387 O   0  0  0  0  0  0  0  0  0  0  0  0
    0.5883    2.8618    3.2880 O   0  0  0  0  0  0  0  0  0  0  0  0
    0.6957    0.7635    0.2316 C   0  0  0  0  0  0  0  0  0  0  0  0
    0.8572   -1.5248    0.9369 O   0  0  0  0  0  0  0  0  0  0  0  0
    0.0622   -2.9678    0.1116 H   0  0  0  0  0  0  0  0  0  0  0  0
   -1.4689   -3.4817   -0.6365 H   0  0  0  0  0  0  0  0  0  0  0  0
   -1.0750   -1.7502   -0.5149 H   0  0  0  0  0  0  0  0  0  0  0  0
   -0.2251   -3.4633    2.6798 H   0  0  0  0  0  0  0  0  0  0  0  0
   -0.8094   -4.6019    1.4523 H   0  0  0  0  0  0  0  0  0  0  0  0
   -2.3178   -3.6749    3.8303 H   0  0  0  0  0  0  0  0  0  0  0  0
   -1.7064   -5.2550    3.6191 H   0  0  0  0  0  0  0  0  0  0  0  0
   -4.9871   -3.6760    1.2669 H   0  0  0  0  0  0  0  0  0  0  0  0
   -4.8181   -1.6865    0.2074 H   0  0  0  0  0  0  0  0  0  0  0  0
   -3.3419   -1.6533   -0.7944 H   0  0  0  0  0  0  0  0  0  0  0  0
   -3.7849   -0.1848    1.8489 H   0  0  0  0  0  0  0  0  0  0  0  0
   -3.6708    0.5565    0.2368 H   0  0  0  0  0  0  0  0  0  0  0  0
    1.7150    0.2019    2.7427 H   0  0  0  0  0  0  0  0  0  0  0  0
    0.1660    0.3856    3.6112 H   0  0  0  0  0  0  0  0  0  0  0  0
   -1.5628    2.1774   -0.2932 H   0  0  0  0  0  0  0  0  0  0  0  0
   -2.7435    2.7003    0.9504 H   0  0  0  0  0  0  0  0  0  0  0  0
   -0.3594    4.0537    0.4635 H   0  0  0  0  0  0  0  0  0  0  0  0
   -1.1636    4.0435    2.0586 H   0  0  0  0  0  0  0  0  0  0  0  0
    3.1156    3.2989    2.7435 H   0  0  0  0  0  0  0  0  0  0  0  0
    3.2163    1.7239    2.0923 H   0  0  0  0  0  0  0  0  0  0  0  0
    5.0380    3.1145    1.4192 H   0  0  0  0  0  0  0  0  0  0  0  0
    0.7932    3.7774    3.5221 H   0  0  0  0  0  0  0  0  0  0  0  0
    0.1888   -0.1413   -0.1038 H   0  0  0  0  0  0  0  0  0  0  0  0
    1.7677    0.5769    0.2955 H   0  0  0  0  0  0  0  0  0  0  0  0
    0.5088    1.5691   -0.4784 H   0  0  0  0  0  0  0  0  0  0  0  0
    1.8220   -1.5298    1.0013 H   0  0  0  0  0  0  0  0  0  0  0  0
  1  2  1  0  0  0  0
  1 31  1  0  0  0  0
  1 32  1  0  0  0  0
  1 33  1  0  0  0  0
  2  8  1  0  0  0  0
  2 13  1  0  0  0  0
  2  3  1  0  0  0  0
  3  4  1  0  0  0  0
  3 34  1  0  0  0  0
  3 35  1  0  0  0  0
  4  5  1  0  0  0  0
  4 36  1  0  0  0  0
  4 37  1  0  0  0  0
  5  6  2  0  0  0  0
  5  7  1  0  0  0  0
  7  8  2  0  0  0  0
  7 38  1  0  0  0  0
  8  9  1  0  0  0  0
  9 10  1  0  0  0  0
  9 39  1  0  0  0  0
  9 40  1  0  0  0  0
 10 11  1  0  0  0  0
 10 41  1  0  0  0  0
 10 42  1  0  0  0  0
 11 12  1  0  0  0  0
 11 19  1  0  0  0  0
 11 13  1  0  0  0  0
 13 14  1  0  0  0  0
 13 15  1  0  0  0  0
 15 16  1  0  0  0  0
 15 17  1  0  0  0  0
 15 30  1  0  0  0  0
 17 18  1  0  0  0  0
 17 43  1  0  0  0  0
 17 44  1  0  0  0  0
 18 23  1  0  0  0  0
 18 19  1  0  0  0  0
 18 29  1  0  0  0  0
 19 20  1  0  0  0  0
 19 21  1  0  0  0  0
 21 22  1  0  0  0  0
 21 45  1  0  0  0  0
 21 46  1  0  0  0  0
 22 23  1  0  0  0  0
 22 47  1  0  0  0  0
 22 48  1  0  0  0  0
 23 24  1  0  0  0  0
 23 28  1  0  0  0  0
 24 25  2  0  0  0  0
 24 26  1  0  0  0  0
 26 27  1  0  0  0  0
 26 49  1  0  0  0  0
 26 50  1  0  0  0  0
 27 51  1  0  0  0  0
 28 52  1  0  0  0  0
 29 53  1  0  0  0  0
 29 54  1  0  0  0  0
 29 55  1  0  0  0  0
 30 56  1  0  0  0  0
M  END
$$$$
