ZINC03831945
  -OEChem-08230709403D

 50 54  0     1  0  0  0  0  0999 V2000
    3.5567    1.5864   -0.4495 C   0  0  0  0  0  0  0  0  0  0  0  0
    4.1339    2.2064   -1.6959 C   0  0  0  0  0  0  0  0  0  0  0  0
    5.1202    1.6019   -2.3458 C   0  0  0  0  0  0  0  0  0  0  0  0
    5.7221    2.2100   -3.5846 C   0  0  0  0  0  0  0  0  0  0  0  0
    4.7196    3.0289   -4.2782 N   0  0  0  0  0  0  0  0  0  0  0  0
    3.9135    3.8768   -3.5163 C   0  0  0  0  0  0  0  0  0  0  0  0
    3.6052    3.4899   -2.1992 C   0  0  0  0  0  0  0  0  0  0  0  0
    2.8160    4.3107   -1.4105 C   0  0  0  0  0  0  0  0  0  0  0  0
    2.3325    5.5115   -1.9376 C   0  0  0  0  0  0  0  0  0  0  0  0
    2.6378    5.8850   -3.2408 C   0  0  0  0  0  0  0  0  0  0  0  0
    3.4285    5.0672   -4.0278 C   0  0  0  0  0  0  0  0  0  0  0  0
    1.4904    6.3571   -1.0579 C   0  0  0  0  0  0  0  0  0  0  0  0
    0.6804    7.3619   -1.5662 C   0  0  0  0  0  0  0  0  0  0  0  0
   -0.0826    8.1257   -0.7030 C   0  0  0  0  0  0  0  0  0  0  0  0
   -0.0391    7.8893    0.6598 C   0  0  0  0  0  0  0  0  0  0  0  0
    0.7642    6.8878    1.1739 C   0  0  0  0  0  0  0  0  0  0  0  0
    1.5323    6.1144    0.3222 C   0  0  0  0  0  0  0  0  0  0  0  0
    2.3265    5.1221    0.7994 O   0  0  0  0  0  0  0  0  0  0  0  0
    2.4647    3.9404    0.0065 C   0  0  1  0  0  0  0  0  0  0  0  0
    3.2549    3.3165    0.4240 H   0  0  0  0  0  0  0  0  0  0  0  0
    1.1658    3.1763    0.0166 C   0  0  0  0  0  0  0  0  0  0  0  0
    0.6433    2.6856   -1.1657 C   0  0  0  0  0  0  0  0  0  0  0  0
   -0.5482    1.9851   -1.1570 C   0  0  0  0  0  0  0  0  0  0  0  0
   -1.2205    1.7790    0.0332 C   0  0  0  0  0  0  0  0  0  0  0  0
   -0.6950    2.2643    1.2169 C   0  0  0  0  0  0  0  0  0  0  0  0
    0.4974    2.9658    1.2077 C   0  0  0  0  0  0  0  0  0  0  0  0
   -1.6102    1.9760    2.8464 Br  0  0  0  0  0  0  0  0  0  0  0  0
    6.2006    1.0951   -4.5168 C   0  0  0  0  0  0  0  0  0  0  0  0
    6.9124    3.0878   -3.1928 C   0  0  0  0  0  0  0  0  0  0  0  0
    4.0409    2.0158    0.4276 H   0  0  0  0  0  0  0  0  0  0  0  0
    2.4858    1.7853   -0.4071 H   0  0  0  0  0  0  0  0  0  0  0  0
    3.7258    0.5098   -0.4673 H   0  0  0  0  0  0  0  0  0  0  0  0
    5.4971    0.6580   -1.9804 H   0  0  0  0  0  0  0  0  0  0  0  0
    4.6198    2.9816   -5.2419 H   0  0  0  0  0  0  0  0  0  0  0  0
    2.2579    6.8142   -3.6391 H   0  0  0  0  0  0  0  0  0  0  0  0
    3.6666    5.3575   -5.0405 H   0  0  0  0  0  0  0  0  0  0  0  0
    0.6463    7.5465   -2.6298 H   0  0  0  0  0  0  0  0  0  0  0  0
   -0.7146    8.9097   -1.0933 H   0  0  0  0  0  0  0  0  0  0  0  0
   -0.6376    8.4915    1.3272 H   0  0  0  0  0  0  0  0  0  0  0  0
    0.7914    6.7095    2.2388 H   0  0  0  0  0  0  0  0  0  0  0  0
    1.1661    2.8500   -2.0963 H   0  0  0  0  0  0  0  0  0  0  0  0
   -0.9564    1.6026   -2.0808 H   0  0  0  0  0  0  0  0  0  0  0  0
   -2.1535    1.2352    0.0393 H   0  0  0  0  0  0  0  0  0  0  0  0
    0.9060    3.3486    2.1313 H   0  0  0  0  0  0  0  0  0  0  0  0
    6.6443    1.5341   -5.4104 H   0  0  0  0  0  0  0  0  0  0  0  0
    6.9448    0.4865   -4.0032 H   0  0  0  0  0  0  0  0  0  0  0  0
    5.3537    0.4706   -4.8010 H   0  0  0  0  0  0  0  0  0  0  0  0
    6.5735    3.8856   -2.5319 H   0  0  0  0  0  0  0  0  0  0  0  0
    7.6573    2.4812   -2.6779 H   0  0  0  0  0  0  0  0  0  0  0  0
    7.3543    3.5221   -4.0896 H   0  0  0  0  0  0  0  0  0  0  0  0
  1  2  1  0  0  0  0
  1 30  1  0  0  0  0
  1 31  1  0  0  0  0
  1 32  1  0  0  0  0
  2  7  1  0  0  0  0
  2  3  2  0  0  0  0
  3  4  1  0  0  0  0
  3 33  1  0  0  0  0
  4  5  1  0  0  0  0
  4 28  1  0  0  0  0
  4 29  1  0  0  0  0
  5  6  1  0  0  0  0
  5 34  1  0  0  0  0
  6 11  2  0  0  0  0
  6  7  1  0  0  0  0
  7  8  2  0  0  0  0
  8 19  1  0  0  0  0
  8  9  1  0  0  0  0
  9 10  2  0  0  0  0
  9 12  1  0  0  0  0
 10 11  1  0  0  0  0
 10 35  1  0  0  0  0
 11 36  1  0  0  0  0
 12 17  2  0  0  0  0
 12 13  1  0  0  0  0
 13 14  2  0  0  0  0
 13 37  1  0  0  0  0
 14 15  1  0  0  0  0
 14 38  1  0  0  0  0
 15 16  2  0  0  0  0
 15 39  1  0  0  0  0
 16 17  1  0  0  0  0
 16 40  1  0  0  0  0
 17 18  1  0  0  0  0
 18 19  1  0  0  0  0
 19 20  1  0  0  0  0
 19 21  1  0  0  0  0
 21 26  2  0  0  0  0
 21 22  1  0  0  0  0
 22 23  2  0  0  0  0
 22 41  1  0  0  0  0
 23 24  1  0  0  0  0
 23 42  1  0  0  0  0
 24 25  2  0  0  0  0
 24 43  1  0  0  0  0
 25 26  1  0  0  0  0
 25 27  1  0  0  0  0
 26 44  1  0  0  0  0
 28 45  1  0  0  0  0
 28 46  1  0  0  0  0
 28 47  1  0  0  0  0
 29 48  1  0  0  0  0
 29 49  1  0  0  0  0
 29 50  1  0  0  0  0
M  END
$$$$
