ZINC03831936
  -OEChem-08230709403D

 50 54  0     1  0  0  0  0  0999 V2000
    3.5368    1.5792   -0.4562 C   0  0  0  0  0  0  0  0  0  0  0  0
    4.1161    2.1957   -1.7033 C   0  0  0  0  0  0  0  0  0  0  0  0
    5.0946    1.5829   -2.3570 C   0  0  0  0  0  0  0  0  0  0  0  0
    5.6994    2.1874   -3.5961 C   0  0  0  0  0  0  0  0  0  0  0  0
    4.7049    3.0196   -4.2849 N   0  0  0  0  0  0  0  0  0  0  0  0
    3.9074    3.8722   -3.5194 C   0  0  0  0  0  0  0  0  0  0  0  0
    3.5980    3.4851   -2.2027 C   0  0  0  0  0  0  0  0  0  0  0  0
    2.8148    4.3094   -1.4117 C   0  0  0  0  0  0  0  0  0  0  0  0
    2.3339    5.5116   -1.9380 C   0  0  0  0  0  0  0  0  0  0  0  0
    2.6441    5.8878   -3.2392 C   0  0  0  0  0  0  0  0  0  0  0  0
    3.4311    5.0678   -4.0276 C   0  0  0  0  0  0  0  0  0  0  0  0
    1.4884    6.3552   -1.0596 C   0  0  0  0  0  0  0  0  0  0  0  0
    0.6759    7.3573   -1.5696 C   0  0  0  0  0  0  0  0  0  0  0  0
   -0.0933    8.1177   -0.7073 C   0  0  0  0  0  0  0  0  0  0  0  0
   -0.0512    7.8802    0.6563 C   0  0  0  0  0  0  0  0  0  0  0  0
    0.7561    6.8824    1.1711 C   0  0  0  0  0  0  0  0  0  0  0  0
    1.5289    6.1127    0.3204 C   0  0  0  0  0  0  0  0  0  0  0  0
    2.3243    5.1211    0.7982 O   0  0  0  0  0  0  0  0  0  0  0  0
    2.4633    3.9395    0.0053 C   0  0  1  0  0  0  0  0  0  0  0  0
    3.2537    3.3160    0.4232 H   0  0  0  0  0  0  0  0  0  0  0  0
    1.1648    3.1747    0.0152 C   0  0  0  0  0  0  0  0  0  0  0  0
    0.4940    2.9671    1.2063 C   0  0  0  0  0  0  0  0  0  0  0  0
   -0.6968    2.2654    1.2163 C   0  0  0  0  0  0  0  0  0  0  0  0
   -1.2153    1.7665    0.0359 C   0  0  0  0  0  0  0  0  0  0  0  0
   -0.5477    1.9792   -1.1569 C   0  0  0  0  0  0  0  0  0  0  0  0
    0.6445    2.6814   -1.1661 C   0  0  0  0  0  0  0  0  0  0  0  0
   -1.2019    1.3591   -2.6405 Cl  0  0  0  0  0  0  0  0  0  0  0  0
   -1.1136    9.3735   -1.3362 Cl  0  0  0  0  0  0  0  0  0  0  0  0
    6.1625    1.0696   -4.5325 C   0  0  0  0  0  0  0  0  0  0  0  0
    6.9010    3.0504   -3.2057 C   0  0  0  0  0  0  0  0  0  0  0  0
    4.0284    2.0018    0.4201 H   0  0  0  0  0  0  0  0  0  0  0  0
    2.4682    1.7889   -0.4098 H   0  0  0  0  0  0  0  0  0  0  0  0
    3.6950    0.5009   -0.4767 H   0  0  0  0  0  0  0  0  0  0  0  0
    5.4631    0.6346   -1.9945 H   0  0  0  0  0  0  0  0  0  0  0  0
    4.6047    2.9782   -5.2488 H   0  0  0  0  0  0  0  0  0  0  0  0
    2.2703    6.8205   -3.6352 H   0  0  0  0  0  0  0  0  0  0  0  0
    3.6732    5.3602   -5.0387 H   0  0  0  0  0  0  0  0  0  0  0  0
    0.6440    7.5424   -2.6332 H   0  0  0  0  0  0  0  0  0  0  0  0
   -0.6535    8.4793    1.3232 H   0  0  0  0  0  0  0  0  0  0  0  0
    0.7832    6.7043    2.2360 H   0  0  0  0  0  0  0  0  0  0  0  0
    0.9008    3.3532    2.1293 H   0  0  0  0  0  0  0  0  0  0  0  0
   -1.2199    2.1030    2.1470 H   0  0  0  0  0  0  0  0  0  0  0  0
   -2.1436    1.2147    0.0444 H   0  0  0  0  0  0  0  0  0  0  0  0
    1.1683    2.8442   -2.0965 H   0  0  0  0  0  0  0  0  0  0  0  0
    6.6089    1.5058   -5.4261 H   0  0  0  0  0  0  0  0  0  0  0  0
    6.9009    0.4509   -4.0225 H   0  0  0  0  0  0  0  0  0  0  0  0
    5.3076    0.4556   -4.8161 H   0  0  0  0  0  0  0  0  0  0  0  0
    6.5733    3.8505   -2.5420 H   0  0  0  0  0  0  0  0  0  0  0  0
    7.6402    2.4339   -2.6942 H   0  0  0  0  0  0  0  0  0  0  0  0
    7.3455    3.4815   -4.1027 H   0  0  0  0  0  0  0  0  0  0  0  0
  1  2  1  0  0  0  0
  1 31  1  0  0  0  0
  1 32  1  0  0  0  0
  1 33  1  0  0  0  0
  2  7  1  0  0  0  0
  2  3  2  0  0  0  0
  3  4  1  0  0  0  0
  3 34  1  0  0  0  0
  4  5  1  0  0  0  0
  4 29  1  0  0  0  0
  4 30  1  0  0  0  0
  5  6  1  0  0  0  0
  5 35  1  0  0  0  0
  6 11  2  0  0  0  0
  6  7  1  0  0  0  0
  7  8  2  0  0  0  0
  8 19  1  0  0  0  0
  8  9  1  0  0  0  0
  9 10  2  0  0  0  0
  9 12  1  0  0  0  0
 10 11  1  0  0  0  0
 10 36  1  0  0  0  0
 11 37  1  0  0  0  0
 12 17  2  0  0  0  0
 12 13  1  0  0  0  0
 13 14  2  0  0  0  0
 13 38  1  0  0  0  0
 14 15  1  0  0  0  0
 14 28  1  0  0  0  0
 15 16  2  0  0  0  0
 15 39  1  0  0  0  0
 16 17  1  0  0  0  0
 16 40  1  0  0  0  0
 17 18  1  0  0  0  0
 18 19  1  0  0  0  0
 19 20  1  0  0  0  0
 19 21  1  0  0  0  0
 21 26  2  0  0  0  0
 21 22  1  0  0  0  0
 22 23  2  0  0  0  0
 22 41  1  0  0  0  0
 23 24  1  0  0  0  0
 23 42  1  0  0  0  0
 24 25  2  0  0  0  0
 24 43  1  0  0  0  0
 25 26  1  0  0  0  0
 25 27  1  0  0  0  0
 26 44  1  0  0  0  0
 29 45  1  0  0  0  0
 29 46  1  0  0  0  0
 29 47  1  0  0  0  0
 30 48  1  0  0  0  0
 30 49  1  0  0  0  0
 30 50  1  0  0  0  0
M  END
$$$$
