ZINC03831933
  -OEChem-08230709403D

 63 66  0     1  0  0  0  0  0999 V2000
    4.9450   -2.6694    1.3026 C   0  0  0  0  0  0  0  0  0  0  0  0
    3.9739   -1.5579    1.6067 C   0  0  0  0  0  0  0  0  0  0  0  0
    3.2297   -1.0367    0.6301 C   0  0  0  0  0  0  0  0  0  0  0  0
    3.2286   -1.5891   -0.7591 C   0  0  0  0  0  0  0  0  0  0  0  0
    3.2688   -2.9113   -1.0196 C   0  0  0  0  0  0  0  0  0  0  0  0
    3.3617   -3.3468   -2.2977 O   0  0  0  0  0  0  0  0  0  0  0  0
    3.3996   -4.7609   -2.5002 C   0  0  0  0  0  0  0  0  0  0  0  0
    3.1799   -0.5549   -1.8330 C   0  0  0  0  0  0  0  0  0  0  0  0
    3.4851   -0.8909   -3.1482 C   0  0  0  0  0  0  0  0  0  0  0  0
    3.4345    0.0710   -4.1397 C   0  0  0  0  0  0  0  0  0  0  0  0
    3.0784    1.3681   -3.8140 C   0  0  0  0  0  0  0  0  0  0  0  0
    2.7742    1.7119   -2.4876 C   0  0  0  0  0  0  0  0  0  0  0  0
    2.8219    0.7422   -1.4831 C   0  0  0  0  0  0  0  0  0  0  0  0
    2.4966    1.1324   -0.0724 C   0  0  2  0  0  0  0  0  0  0  0  0
    3.2664    1.8169    0.2840 H   0  0  0  0  0  0  0  0  0  0  0  0
    2.4143    0.0401    0.8264 O   0  0  0  0  0  0  0  0  0  0  0  0
    1.1750    1.8565   -0.0684 C   0  0  0  0  0  0  0  0  0  0  0  0
    0.3975    1.8815   -1.2117 C   0  0  0  0  0  0  0  0  0  0  0  0
   -0.8127    2.5497   -1.2130 C   0  0  0  0  0  0  0  0  0  0  0  0
   -1.2538    3.1847   -0.0679 C   0  0  0  0  0  0  0  0  0  0  0  0
   -0.4760    3.1607    1.0804 C   0  0  0  0  0  0  0  0  0  0  0  0
    0.7410    2.4942    1.0774 C   0  0  0  0  0  0  0  0  0  0  0  0
   -0.9054    3.7885    2.2066 O   0  0  0  0  0  0  0  0  0  0  0  0
   -2.1678    4.4545    2.1368 C   0  0  0  0  0  0  0  0  0  0  0  0
   -3.5021    3.2260    2.1683 S   0  0  0  0  0  0  0  0  0  0  0  0
   -3.5615    2.6869    3.8993 C   0  0  0  0  0  0  0  0  0  0  0  0
    2.4089    3.1097   -2.1816 C   0  0  0  0  0  0  0  0  0  0  0  0
    2.0703    3.9303   -3.1680 C   0  0  0  0  0  0  0  0  0  0  0  0
    2.0368    3.4564   -4.5965 C   0  0  0  0  0  0  0  0  0  0  0  0
    3.0054    2.3691   -4.7870 N   0  0  0  0  0  0  0  0  0  0  0  0
    0.6324    2.9498   -4.9308 C   0  0  0  0  0  0  0  0  0  0  0  0
    2.3921    4.6188   -5.5258 C   0  0  0  0  0  0  0  0  0  0  0  0
    2.4211    3.6017   -0.7572 C   0  0  0  0  0  0  0  0  0  0  0  0
    5.3717   -2.5180    0.3111 H   0  0  0  0  0  0  0  0  0  0  0  0
    5.7427   -2.6684    2.0455 H   0  0  0  0  0  0  0  0  0  0  0  0
    4.4231   -3.6259    1.3313 H   0  0  0  0  0  0  0  0  0  0  0  0
    3.8804   -1.1834    2.6154 H   0  0  0  0  0  0  0  0  0  0  0  0
    3.2267   -3.6230   -0.2084 H   0  0  0  0  0  0  0  0  0  0  0  0
    4.2644   -5.1787   -1.9848 H   0  0  0  0  0  0  0  0  0  0  0  0
    2.4887   -5.2092   -2.1036 H   0  0  0  0  0  0  0  0  0  0  0  0
    3.4746   -4.9733   -3.5667 H   0  0  0  0  0  0  0  0  0  0  0  0
    3.7624   -1.9051   -3.3949 H   0  0  0  0  0  0  0  0  0  0  0  0
    3.6715   -0.1878   -5.1611 H   0  0  0  0  0  0  0  0  0  0  0  0
    0.7384    1.3820   -2.1065 H   0  0  0  0  0  0  0  0  0  0  0  0
   -1.4160    2.5716   -2.1085 H   0  0  0  0  0  0  0  0  0  0  0  0
   -2.2012    3.7032   -0.0682 H   0  0  0  0  0  0  0  0  0  0  0  0
    1.3485    2.4744    1.9701 H   0  0  0  0  0  0  0  0  0  0  0  0
   -2.2719    5.1260    2.9891 H   0  0  0  0  0  0  0  0  0  0  0  0
   -2.2248    5.0293    1.2124 H   0  0  0  0  0  0  0  0  0  0  0  0
   -4.3441    1.9378    4.0199 H   0  0  0  0  0  0  0  0  0  0  0  0
   -2.6001    2.2562    4.1789 H   0  0  0  0  0  0  0  0  0  0  0  0
   -3.7761    3.5428    4.5392 H   0  0  0  0  0  0  0  0  0  0  0  0
    1.8149    4.9551   -2.9423 H   0  0  0  0  0  0  0  0  0  0  0  0
    3.5801    2.3463   -5.5680 H   0  0  0  0  0  0  0  0  0  0  0  0
   -0.0866    3.7583   -4.7986 H   0  0  0  0  0  0  0  0  0  0  0  0
    0.6066    2.6063   -5.9650 H   0  0  0  0  0  0  0  0  0  0  0  0
    0.3765    2.1239   -4.2671 H   0  0  0  0  0  0  0  0  0  0  0  0
    3.3911    4.9831   -5.2864 H   0  0  0  0  0  0  0  0  0  0  0  0
    2.3682    4.2771   -6.5606 H   0  0  0  0  0  0  0  0  0  0  0  0
    1.6699    5.4243   -5.3924 H   0  0  0  0  0  0  0  0  0  0  0  0
    3.1016    2.9882   -0.1668 H   0  0  0  0  0  0  0  0  0  0  0  0
    2.7542    4.6392   -0.7340 H   0  0  0  0  0  0  0  0  0  0  0  0
    1.4162    3.5333   -0.3406 H   0  0  0  0  0  0  0  0  0  0  0  0
  1  2  1  0  0  0  0
  1 34  1  0  0  0  0
  1 35  1  0  0  0  0
  1 36  1  0  0  0  0
  2  3  2  0  0  0  0
  2 37  1  0  0  0  0
  3 16  1  0  0  0  0
  3  4  1  0  0  0  0
  4  5  2  0  0  0  0
  4  8  1  0  0  0  0
  5  6  1  0  0  0  0
  5 38  1  0  0  0  0
  6  7  1  0  0  0  0
  7 39  1  0  0  0  0
  7 40  1  0  0  0  0
  7 41  1  0  0  0  0
  8 13  2  0  0  0  0
  8  9  1  0  0  0  0
  9 10  2  0  0  0  0
  9 42  1  0  0  0  0
 10 11  1  0  0  0  0
 10 43  1  0  0  0  0
 11 30  1  0  0  0  0
 11 12  2  0  0  0  0
 12 13  1  0  0  0  0
 12 27  1  0  0  0  0
 13 14  1  0  0  0  0
 14 15  1  0  0  0  0
 14 16  1  0  0  0  0
 14 17  1  0  0  0  0
 17 22  2  0  0  0  0
 17 18  1  0  0  0  0
 18 19  2  0  0  0  0
 18 44  1  0  0  0  0
 19 20  1  0  0  0  0
 19 45  1  0  0  0  0
 20 21  2  0  0  0  0
 20 46  1  0  0  0  0
 21 22  1  0  0  0  0
 21 23  1  0  0  0  0
 22 47  1  0  0  0  0
 23 24  1  0  0  0  0
 24 25  1  0  0  0  0
 24 48  1  0  0  0  0
 24 49  1  0  0  0  0
 25 26  1  0  0  0  0
 26 50  1  0  0  0  0
 26 51  1  0  0  0  0
 26 52  1  0  0  0  0
 27 28  2  0  0  0  0
 27 33  1  0  0  0  0
 28 29  1  0  0  0  0
 28 53  1  0  0  0  0
 29 30  1  0  0  0  0
 29 31  1  0  0  0  0
 29 32  1  0  0  0  0
 30 54  1  0  0  0  0
 31 55  1  0  0  0  0
 31 56  1  0  0  0  0
 31 57  1  0  0  0  0
 32 58  1  0  0  0  0
 32 59  1  0  0  0  0
 32 60  1  0  0  0  0
 33 61  1  0  0  0  0
 33 62  1  0  0  0  0
 33 63  1  0  0  0  0
M  END
$$$$
