ZINC03833837
  -OEChem-08230709403D

 43 44  0     1  0  0  0  0  0999 V2000
   -2.8133    1.4083    2.6334 C   0  0  0  0  0  0  0  0  0  0  0  0
   -2.1361    0.9817    1.3294 C   0  0  0  0  0  0  0  0  0  0  0  0
   -0.7292    1.5794    1.2661 C   0  0  2  0  0  0  0  0  0  0  0  0
   -0.7985    2.6669    1.2405 H   0  0  0  0  0  0  0  0  0  0  0  0
   -0.0127    1.0858    0.0080 C   0  0  0  0  0  0  0  0  0  0  0  0
   -0.7544    1.5937   -1.2329 C   0  0  0  0  0  0  0  0  0  0  0  0
   -2.2031    1.1700   -1.1343 C   0  0  0  0  0  0  0  0  0  0  0  0
   -2.7895    0.5459   -2.1257 C   0  0  0  0  0  0  0  0  0  0  0  0
   -2.9576    1.4857    0.1382 C   0  0  2  0  0  0  0  0  0  0  0  0
   -3.9259    0.9854    0.1234 H   0  0  0  0  0  0  0  0  0  0  0  0
   -3.1621    2.9976    0.2527 C   0  0  0  0  0  0  0  0  0  0  0  0
   -4.0550    3.4699   -0.8656 C   0  0  0  0  0  0  0  0  0  0  0  0
   -5.3974    3.6962   -0.6290 C   0  0  0  0  0  0  0  0  0  0  0  0
   -6.2182    4.1353   -1.6564 C   0  0  0  0  0  0  0  0  0  0  0  0
   -5.6936    4.3375   -2.9255 C   0  0  0  0  0  0  0  0  0  0  0  0
   -4.3522    4.1060   -3.1631 C   0  0  0  0  0  0  0  0  0  0  0  0
   -3.5304    3.6717   -2.1333 C   0  0  0  0  0  0  0  0  0  0  0  0
   -2.2103    3.4443   -2.3669 O   0  0  0  0  0  0  0  0  0  0  0  0
   -6.8141    4.9301   -4.3287 Br  0  0  0  0  0  0  0  0  0  0  0  0
   -7.5384    4.3631   -1.4222 O   0  0  0  0  0  0  0  0  0  0  0  0
   -8.0102    4.1345   -0.0928 C   0  0  0  0  0  0  0  0  0  0  0  0
    0.2877    1.0285    2.8559 Br  0  0  0  0  0  0  0  0  0  0  0  0
   -2.0451   -0.5447    1.2773 C   0  0  0  0  0  0  0  0  0  0  0  0
   -3.8161    0.9833    2.6779 H   0  0  0  0  0  0  0  0  0  0  0  0
   -2.2288    1.0497    3.4806 H   0  0  0  0  0  0  0  0  0  0  0  0
   -2.8776    2.4958    2.6705 H   0  0  0  0  0  0  0  0  0  0  0  0
    0.0021   -0.0041    0.0020 H   0  0  0  0  0  0  0  0  0  0  0  0
    1.0098    1.4633    0.0003 H   0  0  0  0  0  0  0  0  0  0  0  0
   -0.6931    2.6811   -1.2766 H   0  0  0  0  0  0  0  0  0  0  0  0
   -0.3071    1.1628   -2.1287 H   0  0  0  0  0  0  0  0  0  0  0  0
   -2.2379    0.3278   -3.0282 H   0  0  0  0  0  0  0  0  0  0  0  0
   -3.8246    0.2497   -2.0405 H   0  0  0  0  0  0  0  0  0  0  0  0
   -3.6264    3.2299    1.2111 H   0  0  0  0  0  0  0  0  0  0  0  0
   -2.1976    3.5009    0.1848 H   0  0  0  0  0  0  0  0  0  0  0  0
   -5.8065    3.5347    0.3574 H   0  0  0  0  0  0  0  0  0  0  0  0
   -3.9437    4.2628   -4.1505 H   0  0  0  0  0  0  0  0  0  0  0  0
   -2.0099    2.5395   -2.6431 H   0  0  0  0  0  0  0  0  0  0  0  0
   -9.0769    4.3532   -0.0432 H   0  0  0  0  0  0  0  0  0  0  0  0
   -7.8399    3.0927    0.1791 H   0  0  0  0  0  0  0  0  0  0  0  0
   -7.4737    4.7831    0.5997 H   0  0  0  0  0  0  0  0  0  0  0  0
   -1.5621   -0.8484    0.3485 H   0  0  0  0  0  0  0  0  0  0  0  0
   -1.4606   -0.9030    2.1248 H   0  0  0  0  0  0  0  0  0  0  0  0
   -3.0476   -0.9701    1.3215 H   0  0  0  0  0  0  0  0  0  0  0  0
  1  2  1  0  0  0  0
  1 24  1  0  0  0  0
  1 25  1  0  0  0  0
  1 26  1  0  0  0  0
  2  9  1  0  0  0  0
  2  3  1  0  0  0  0
  2 23  1  0  0  0  0
  3  4  1  0  0  0  0
  3  5  1  0  0  0  0
  3 22  1  0  0  0  0
  5  6  1  0  0  0  0
  5 27  1  0  0  0  0
  5 28  1  0  0  0  0
  6  7  1  0  0  0  0
  6 29  1  0  0  0  0
  6 30  1  0  0  0  0
  7  8  2  0  0  0  0
  7  9  1  0  0  0  0
  8 31  1  0  0  0  0
  8 32  1  0  0  0  0
  9 10  1  0  0  0  0
  9 11  1  0  0  0  0
 11 12  1  0  0  0  0
 11 33  1  0  0  0  0
 11 34  1  0  0  0  0
 12 17  2  0  0  0  0
 12 13  1  0  0  0  0
 13 14  2  0  0  0  0
 13 35  1  0  0  0  0
 14 15  1  0  0  0  0
 14 20  1  0  0  0  0
 15 16  2  0  0  0  0
 15 19  1  0  0  0  0
 16 17  1  0  0  0  0
 16 36  1  0  0  0  0
 17 18  1  0  0  0  0
 18 37  1  0  0  0  0
 20 21  1  0  0  0  0
 21 38  1  0  0  0  0
 21 39  1  0  0  0  0
 21 40  1  0  0  0  0
 23 41  1  0  0  0  0
 23 42  1  0  0  0  0
 23 43  1  0  0  0  0
M  END
$$$$
