ZINC03831950
  -OEChem-08230709403D

 53 57  0     1  0  0  0  0  0999 V2000
    1.4626    1.5790    4.0993 C   0  0  0  0  0  0  0  0  0  0  0  0
    0.9019    2.2012    2.8465 C   0  0  0  0  0  0  0  0  0  0  0  0
   -0.2214    1.7351    2.3162 C   0  0  0  0  0  0  0  0  0  0  0  0
   -0.7919    2.3298    1.0564 C   0  0  0  0  0  0  0  0  0  0  0  0
   -0.4094    3.7436    0.9513 N   0  0  0  0  0  0  0  0  0  0  0  0
    0.9073    4.0992    1.2496 C   0  0  0  0  0  0  0  0  0  0  0  0
    1.6005    3.3320    2.2035 C   0  0  0  0  0  0  0  0  0  0  0  0
    2.9116    3.6497    2.5176 C   0  0  0  0  0  0  0  0  0  0  0  0
    3.5251    4.7356    1.8868 C   0  0  0  0  0  0  0  0  0  0  0  0
    2.8335    5.4902    0.9471 C   0  0  0  0  0  0  0  0  0  0  0  0
    1.5259    5.1701    0.6292 C   0  0  0  0  0  0  0  0  0  0  0  0
    4.9255    5.0450    2.2626 C   0  0  0  0  0  0  0  0  0  0  0  0
    5.5006    6.2780    1.9920 C   0  0  0  0  0  0  0  0  0  0  0  0
    6.8107    6.5160    2.3629 C   0  0  0  0  0  0  0  0  0  0  0  0
    7.5443    5.5304    2.9996 C   0  0  0  0  0  0  0  0  0  0  0  0
    6.9779    4.2988    3.2732 C   0  0  0  0  0  0  0  0  0  0  0  0
    5.6673    4.0467    2.9094 C   0  0  0  0  0  0  0  0  0  0  0  0
    5.0836    2.8490    3.1702 O   0  0  0  0  0  0  0  0  0  0  0  0
    3.6975    2.8476    3.5214 C   0  0  1  0  0  0  0  0  0  0  0  0
    3.3280    1.8222    3.5324 H   0  0  0  0  0  0  0  0  0  0  0  0
    3.5275    3.4553    4.8899 C   0  0  0  0  0  0  0  0  0  0  0  0
    4.3587    3.0701    5.9254 C   0  0  0  0  0  0  0  0  0  0  0  0
    4.2054    3.6303    7.1796 C   0  0  0  0  0  0  0  0  0  0  0  0
    3.2153    4.5695    7.4008 C   0  0  0  0  0  0  0  0  0  0  0  0
    2.3813    4.9511    6.3668 C   0  0  0  0  0  0  0  0  0  0  0  0
    2.5371    4.3936    5.1113 C   0  0  0  0  0  0  0  0  0  0  0  0
    1.3017    5.9746    6.6080 C   0  0  0  0  0  0  0  0  0  0  0  0
    0.1267    5.3280    7.0060 F   0  0  0  0  0  0  0  0  0  0  0  0
    1.7118    6.8570    7.6132 F   0  0  0  0  0  0  0  0  0  0  0  0
    1.0644    6.6889    5.4287 F   0  0  0  0  0  0  0  0  0  0  0  0
   -0.2528    1.5665   -0.1550 C   0  0  0  0  0  0  0  0  0  0  0  0
   -2.3176    2.2196    1.0883 C   0  0  0  0  0  0  0  0  0  0  0  0
    2.2097    0.8320    3.8311 H   0  0  0  0  0  0  0  0  0  0  0  0
    1.9255    2.3518    4.7131 H   0  0  0  0  0  0  0  0  0  0  0  0
    0.6581    1.1031    4.6601 H   0  0  0  0  0  0  0  0  0  0  0  0
   -0.7353    0.9156    2.7966 H   0  0  0  0  0  0  0  0  0  0  0  0
   -1.0559    4.4143    0.6809 H   0  0  0  0  0  0  0  0  0  0  0  0
    3.3172    6.3267    0.4645 H   0  0  0  0  0  0  0  0  0  0  0  0
    0.9886    5.7551   -0.1026 H   0  0  0  0  0  0  0  0  0  0  0  0
    4.9284    7.0470    1.4944 H   0  0  0  0  0  0  0  0  0  0  0  0
    7.2634    7.4742    2.1548 H   0  0  0  0  0  0  0  0  0  0  0  0
    8.5675    5.7248    3.2856 H   0  0  0  0  0  0  0  0  0  0  0  0
    7.5577    3.5352    3.7703 H   0  0  0  0  0  0  0  0  0  0  0  0
    5.1297    2.3336    5.7536 H   0  0  0  0  0  0  0  0  0  0  0  0
    4.8568    3.3318    7.9877 H   0  0  0  0  0  0  0  0  0  0  0  0
    3.0933    5.0048    8.3816 H   0  0  0  0  0  0  0  0  0  0  0  0
    1.8852    4.6915    4.3034 H   0  0  0  0  0  0  0  0  0  0  0  0
   -0.5437    0.5185   -0.0830 H   0  0  0  0  0  0  0  0  0  0  0  0
    0.8345    1.6411   -0.1771 H   0  0  0  0  0  0  0  0  0  0  0  0
   -0.6650    1.9960   -1.0681 H   0  0  0  0  0  0  0  0  0  0  0  0
   -2.6046    1.1707    1.1617 H   0  0  0  0  0  0  0  0  0  0  0  0
   -2.7031    2.7631    1.9509 H   0  0  0  0  0  0  0  0  0  0  0  0
   -2.7319    2.6466    0.1750 H   0  0  0  0  0  0  0  0  0  0  0  0
  1  2  1  0  0  0  0
  1 33  1  0  0  0  0
  1 34  1  0  0  0  0
  1 35  1  0  0  0  0
  2  7  1  0  0  0  0
  2  3  2  0  0  0  0
  3  4  1  0  0  0  0
  3 36  1  0  0  0  0
  4  5  1  0  0  0  0
  4 31  1  0  0  0  0
  4 32  1  0  0  0  0
  5  6  1  0  0  0  0
  5 37  1  0  0  0  0
  6 11  2  0  0  0  0
  6  7  1  0  0  0  0
  7  8  2  0  0  0  0
  8 19  1  0  0  0  0
  8  9  1  0  0  0  0
  9 10  2  0  0  0  0
  9 12  1  0  0  0  0
 10 11  1  0  0  0  0
 10 38  1  0  0  0  0
 11 39  1  0  0  0  0
 12 17  2  0  0  0  0
 12 13  1  0  0  0  0
 13 14  2  0  0  0  0
 13 40  1  0  0  0  0
 14 15  1  0  0  0  0
 14 41  1  0  0  0  0
 15 16  2  0  0  0  0
 15 42  1  0  0  0  0
 16 17  1  0  0  0  0
 16 43  1  0  0  0  0
 17 18  1  0  0  0  0
 18 19  1  0  0  0  0
 19 20  1  0  0  0  0
 19 21  1  0  0  0  0
 21 26  2  0  0  0  0
 21 22  1  0  0  0  0
 22 23  2  0  0  0  0
 22 44  1  0  0  0  0
 23 24  1  0  0  0  0
 23 45  1  0  0  0  0
 24 25  2  0  0  0  0
 24 46  1  0  0  0  0
 25 26  1  0  0  0  0
 25 27  1  0  0  0  0
 26 47  1  0  0  0  0
 27 28  1  0  0  0  0
 27 29  1  0  0  0  0
 27 30  1  0  0  0  0
 31 48  1  0  0  0  0
 31 49  1  0  0  0  0
 31 50  1  0  0  0  0
 32 51  1  0  0  0  0
 32 52  1  0  0  0  0
 32 53  1  0  0  0  0
M  END
$$$$
