ZINC04628814
  -OEChem-08230709403D

 55 58  0     1  0  0  0  0  0999 V2000
   -1.7226   -2.2236   -0.6203 C   0  0  0  0  0  0  0  0  0  0  0  0
   -1.6004   -0.7720   -1.0064 C   0  0  0  0  0  0  0  0  0  0  0  0
   -2.5971   -0.1623   -1.6357 C   0  0  0  0  0  0  0  0  0  0  0  0
   -2.4898    1.2831   -2.0432 C   0  0  0  0  0  0  0  0  0  0  0  0
   -1.5983    1.9990   -1.1217 N   0  0  0  0  0  0  0  0  0  0  0  0
   -0.4031    1.3839   -0.7441 C   0  0  0  0  0  0  0  0  0  0  0  0
   -0.3709   -0.0189   -0.6862 C   0  0  0  0  0  0  0  0  0  0  0  0
    0.8030   -0.6792   -0.3282 C   0  0  0  0  0  0  0  0  0  0  0  0
    1.9275    0.0854   -0.0265 C   0  0  0  0  0  0  0  0  0  0  0  0
    1.8911    1.4747   -0.0807 C   0  0  0  0  0  0  0  0  0  0  0  0
    0.7253    2.1251   -0.4395 C   0  0  0  0  0  0  0  0  0  0  0  0
    3.1824   -0.6227    0.3618 C   0  0  0  0  0  0  0  0  0  0  0  0
    4.2162   -0.0011    0.9459 C   0  0  0  0  0  0  0  0  0  0  0  0
    3.1897   -2.0859    0.0437 C   0  0  0  0  0  0  0  0  0  0  0  0
    4.2723   -2.7121   -0.4147 C   0  0  0  0  0  0  0  0  0  0  0  0
    5.5044   -1.9221   -0.7736 C   0  0  0  0  0  0  0  0  0  0  0  0
    5.9002   -2.2377   -2.1100 O   0  0  0  0  0  0  0  0  0  0  0  0
    7.0654   -1.5382   -2.5516 C   0  0  0  0  0  0  0  0  0  0  0  0
    2.0061   -2.7314    0.2581 O   0  0  0  0  0  0  0  0  0  0  0  0
    0.8186   -2.1778   -0.2811 C   0  0  2  0  0  0  0  0  0  0  0  0
   -0.0250   -2.5140    0.3217 H   0  0  0  0  0  0  0  0  0  0  0  0
    0.6428   -2.7027   -1.6828 C   0  0  0  0  0  0  0  0  0  0  0  0
    0.6451   -4.0652   -1.9159 C   0  0  0  0  0  0  0  0  0  0  0  0
    0.4799   -4.5468   -3.2011 C   0  0  0  0  0  0  0  0  0  0  0  0
    0.3211   -3.6656   -4.2543 C   0  0  0  0  0  0  0  0  0  0  0  0
    0.3237   -2.3030   -4.0218 C   0  0  0  0  0  0  0  0  0  0  0  0
    0.4850   -1.8215   -2.7361 C   0  0  0  0  0  0  0  0  0  0  0  0
   -1.9279    1.3700   -3.4636 C   0  0  0  0  0  0  0  0  0  0  0  0
   -3.8777    1.9257   -2.0058 C   0  0  0  0  0  0  0  0  0  0  0  0
   -1.5155   -2.3351    0.4440 H   0  0  0  0  0  0  0  0  0  0  0  0
   -2.7334   -2.5721   -0.8322 H   0  0  0  0  0  0  0  0  0  0  0  0
   -1.0073   -2.8134   -1.1935 H   0  0  0  0  0  0  0  0  0  0  0  0
   -3.4995   -0.7119   -1.8595 H   0  0  0  0  0  0  0  0  0  0  0  0
   -1.8340    2.8771   -0.7835 H   0  0  0  0  0  0  0  0  0  0  0  0
    2.7756    2.0466    0.1581 H   0  0  0  0  0  0  0  0  0  0  0  0
    0.6953    3.2039   -0.4821 H   0  0  0  0  0  0  0  0  0  0  0  0
    5.1115   -0.5542    1.1888 H   0  0  0  0  0  0  0  0  0  0  0  0
    4.1540    1.0527    1.1737 H   0  0  0  0  0  0  0  0  0  0  0  0
    4.2671   -3.7860   -0.5292 H   0  0  0  0  0  0  0  0  0  0  0  0
    5.2867   -0.8565   -0.7012 H   0  0  0  0  0  0  0  0  0  0  0  0
    6.3115   -2.1755   -0.0863 H   0  0  0  0  0  0  0  0  0  0  0  0
    7.9049   -1.7836   -1.9012 H   0  0  0  0  0  0  0  0  0  0  0  0
    7.3001   -1.8327   -3.5745 H   0  0  0  0  0  0  0  0  0  0  0  0
    6.8800   -0.4647   -2.5161 H   0  0  0  0  0  0  0  0  0  0  0  0
    0.7728   -4.7536   -1.0936 H   0  0  0  0  0  0  0  0  0  0  0  0
    0.4783   -5.6114   -3.3828 H   0  0  0  0  0  0  0  0  0  0  0  0
    0.1955   -4.0418   -5.2588 H   0  0  0  0  0  0  0  0  0  0  0  0
    0.2000   -1.6145   -4.8447 H   0  0  0  0  0  0  0  0  0  0  0  0
    0.4874   -0.7569   -2.5545 H   0  0  0  0  0  0  0  0  0  0  0  0
   -2.5933    0.8466   -4.1502 H   0  0  0  0  0  0  0  0  0  0  0  0
   -1.8496    2.4160   -3.7600 H   0  0  0  0  0  0  0  0  0  0  0  0
   -0.9405    0.9092   -3.4926 H   0  0  0  0  0  0  0  0  0  0  0  0
   -4.2809    1.8614   -0.9952 H   0  0  0  0  0  0  0  0  0  0  0  0
   -3.8016    2.9724   -2.3006 H   0  0  0  0  0  0  0  0  0  0  0  0
   -4.5396    1.4014   -2.6951 H   0  0  0  0  0  0  0  0  0  0  0  0
  1  2  1  0  0  0  0
  1 30  1  0  0  0  0
  1 31  1  0  0  0  0
  1 32  1  0  0  0  0
  2  7  1  0  0  0  0
  2  3  2  0  0  0  0
  3  4  1  0  0  0  0
  3 33  1  0  0  0  0
  4  5  1  0  0  0  0
  4 28  1  0  0  0  0
  4 29  1  0  0  0  0
  5  6  1  0  0  0  0
  5 34  1  0  0  0  0
  6 11  2  0  0  0  0
  6  7  1  0  0  0  0
  7  8  2  0  0  0  0
  8 20  1  0  0  0  0
  8  9  1  0  0  0  0
  9 10  2  0  0  0  0
  9 12  1  0  0  0  0
 10 11  1  0  0  0  0
 10 35  1  0  0  0  0
 11 36  1  0  0  0  0
 12 13  2  0  0  0  0
 12 14  1  0  0  0  0
 13 37  1  0  0  0  0
 13 38  1  0  0  0  0
 14 15  2  0  0  0  0
 14 19  1  0  0  0  0
 15 16  1  0  0  0  0
 15 39  1  0  0  0  0
 16 17  1  0  0  0  0
 16 40  1  0  0  0  0
 16 41  1  0  0  0  0
 17 18  1  0  0  0  0
 18 42  1  0  0  0  0
 18 43  1  0  0  0  0
 18 44  1  0  0  0  0
 19 20  1  0  0  0  0
 20 21  1  0  0  0  0
 20 22  1  0  0  0  0
 22 27  2  0  0  0  0
 22 23  1  0  0  0  0
 23 24  2  0  0  0  0
 23 45  1  0  0  0  0
 24 25  1  0  0  0  0
 24 46  1  0  0  0  0
 25 26  2  0  0  0  0
 25 47  1  0  0  0  0
 26 27  1  0  0  0  0
 26 48  1  0  0  0  0
 27 49  1  0  0  0  0
 28 50  1  0  0  0  0
 28 51  1  0  0  0  0
 28 52  1  0  0  0  0
 29 53  1  0  0  0  0
 29 54  1  0  0  0  0
 29 55  1  0  0  0  0
M  END
$$$$
