ZINC03831991
  -OEChem-08230709403D

 51 55  0     1  0  0  0  0  0999 V2000
   -0.4028    2.7255   -1.2424 C   0  0  0  0  0  0  0  0  0  0  0  0
    0.1384    2.2323    0.1009 C   0  0  1  0  0  0  0  0  0  0  0  0
    0.0775    2.9682    0.7752 H   0  0  0  0  0  0  0  0  0  0  0  0
   -0.6770    1.0526    0.5690 C   0  0  0  0  0  0  0  0  0  0  0  0
   -0.1885   -0.2450    0.5126 C   0  0  0  0  0  0  0  0  0  0  0  0
   -0.9812   -1.3096    0.9415 C   0  0  0  0  0  0  0  0  0  0  0  0
   -2.2503   -1.0830    1.4314 C   0  0  0  0  0  0  0  0  0  0  0  0
   -2.7349    0.2157    1.4957 C   0  0  0  0  0  0  0  0  0  0  0  0
   -1.9449    1.2838    1.0620 C   0  0  0  0  0  0  0  0  0  0  0  0
   -2.5025    2.6819    1.1362 C   0  0  1  0  0  0  0  0  0  0  0  0
   -2.0504    3.2938    0.3556 H   0  0  0  0  0  0  0  0  0  0  0  0
   -3.9203    2.6507    0.9538 O   0  0  0  0  0  0  0  0  0  0  0  0
   -4.6370    1.7778    1.7071 C   0  0  0  0  0  0  0  0  0  0  0  0
   -4.0866    0.5263    2.0183 C   0  0  0  0  0  0  0  0  0  0  0  0
   -4.8001   -0.3783    2.7905 C   0  0  0  0  0  0  0  0  0  0  0  0
   -6.0592   -0.0396    3.2497 C   0  0  0  0  0  0  0  0  0  0  0  0
   -6.6043    1.1944    2.9411 C   0  0  0  0  0  0  0  0  0  0  0  0
   -5.8987    2.1021    2.1724 C   0  0  0  0  0  0  0  0  0  0  0  0
   -2.1842    3.2769    2.4836 C   0  0  0  0  0  0  0  0  0  0  0  0
   -2.8513    2.8329    3.6101 C   0  0  0  0  0  0  0  0  0  0  0  0
   -2.5557    3.3743    4.8469 C   0  0  0  0  0  0  0  0  0  0  0  0
   -1.6000    4.3688    4.9560 C   0  0  0  0  0  0  0  0  0  0  0  0
   -0.9368    4.8167    3.8275 C   0  0  0  0  0  0  0  0  0  0  0  0
   -1.2292    4.2706    2.5919 C   0  0  0  0  0  0  0  0  0  0  0  0
   -1.2337    5.0547    6.5081 Cl  0  0  0  0  0  0  0  0  0  0  0  0
    1.0990   -0.5318    0.0489 N   0  0  0  0  0  0  0  0  0  0  0  0
    1.8422    0.4741   -0.7211 C   0  0  0  0  0  0  0  0  0  0  0  0
    1.5820    1.8149   -0.0602 C   0  0  0  0  0  0  0  0  0  0  0  0
    2.4879    2.5173    0.3196 O   0  0  0  0  0  0  0  0  0  0  0  0
    3.3386    0.1568   -0.6881 C   0  0  0  0  0  0  0  0  0  0  0  0
    1.3450    0.4971   -2.1679 C   0  0  0  0  0  0  0  0  0  0  0  0
   -1.3912    3.1619   -1.0978 H   0  0  0  0  0  0  0  0  0  0  0  0
    0.2707    3.4788   -1.6510 H   0  0  0  0  0  0  0  0  0  0  0  0
   -0.4736    1.8872   -1.9355 H   0  0  0  0  0  0  0  0  0  0  0  0
   -0.5989   -2.3183    0.8887 H   0  0  0  0  0  0  0  0  0  0  0  0
   -2.8619   -1.9094    1.7620 H   0  0  0  0  0  0  0  0  0  0  0  0
   -4.3745   -1.3411    3.0319 H   0  0  0  0  0  0  0  0  0  0  0  0
   -6.6192   -0.7400    3.8514 H   0  0  0  0  0  0  0  0  0  0  0  0
   -7.5892    1.4504    3.3028 H   0  0  0  0  0  0  0  0  0  0  0  0
   -6.3318    3.0629    1.9364 H   0  0  0  0  0  0  0  0  0  0  0  0
   -3.6004    2.0597    3.5242 H   0  0  0  0  0  0  0  0  0  0  0  0
   -3.0738    3.0243    5.7275 H   0  0  0  0  0  0  0  0  0  0  0  0
   -0.1909    5.5932    3.9119 H   0  0  0  0  0  0  0  0  0  0  0  0
   -0.7112    4.6199    1.7110 H   0  0  0  0  0  0  0  0  0  0  0  0
    1.5012   -1.3944    0.2360 H   0  0  0  0  0  0  0  0  0  0  0  0
    3.5110   -0.8276   -1.1233 H   0  0  0  0  0  0  0  0  0  0  0  0
    3.8820    0.9077   -1.2616 H   0  0  0  0  0  0  0  0  0  0  0  0
    3.6889    0.1642    0.3440 H   0  0  0  0  0  0  0  0  0  0  0  0
    0.2556    0.4624   -2.1783 H   0  0  0  0  0  0  0  0  0  0  0  0
    1.6841    1.4118   -2.6541 H   0  0  0  0  0  0  0  0  0  0  0  0
    1.7412   -0.3666   -2.7020 H   0  0  0  0  0  0  0  0  0  0  0  0
  1  2  1  0  0  0  0
  1 32  1  0  0  0  0
  1 33  1  0  0  0  0
  1 34  1  0  0  0  0
  2  3  1  0  0  0  0
  2 28  1  0  0  0  0
  2  4  1  0  0  0  0
  4  9  2  0  0  0  0
  4  5  1  0  0  0  0
  5  6  2  0  0  0  0
  5 26  1  0  0  0  0
  6  7  1  0  0  0  0
  6 35  1  0  0  0  0
  7  8  2  0  0  0  0
  7 36  1  0  0  0  0
  8 14  1  0  0  0  0
  8  9  1  0  0  0  0
  9 10  1  0  0  0  0
 10 11  1  0  0  0  0
 10 12  1  0  0  0  0
 10 19  1  0  0  0  0
 12 13  1  0  0  0  0
 13 18  2  0  0  0  0
 13 14  1  0  0  0  0
 14 15  2  0  0  0  0
 15 16  1  0  0  0  0
 15 37  1  0  0  0  0
 16 17  2  0  0  0  0
 16 38  1  0  0  0  0
 17 18  1  0  0  0  0
 17 39  1  0  0  0  0
 18 40  1  0  0  0  0
 19 24  2  0  0  0  0
 19 20  1  0  0  0  0
 20 21  2  0  0  0  0
 20 41  1  0  0  0  0
 21 22  1  0  0  0  0
 21 42  1  0  0  0  0
 22 23  2  0  0  0  0
 22 25  1  0  0  0  0
 23 24  1  0  0  0  0
 23 43  1  0  0  0  0
 24 44  1  0  0  0  0
 26 27  1  0  0  0  0
 26 45  1  0  0  0  0
 27 28  1  0  0  0  0
 27 30  1  0  0  0  0
 27 31  1  0  0  0  0
 28 29  2  0  0  0  0
 30 46  1  0  0  0  0
 30 47  1  0  0  0  0
 30 48  1  0  0  0  0
 31 49  1  0  0  0  0
 31 50  1  0  0  0  0
 31 51  1  0  0  0  0
M  END
$$$$
