ZINC03831958
  -OEChem-08230709403D

 50 54  0     1  0  0  0  0  0999 V2000
    0.8204   -1.2124    1.2121 C   0  0  0  0  0  0  0  0  0  0  0  0
    1.1060   -0.2943    2.3716 C   0  0  0  0  0  0  0  0  0  0  0  0
    0.2394   -0.3079    3.3836 C   0  0  0  0  0  0  0  0  0  0  0  0
    0.5489    0.4445    4.6510 C   0  0  0  0  0  0  0  0  0  0  0  0
    2.0039    0.3865    4.8608 N   0  0  0  0  0  0  0  0  0  0  0  0
    2.8235    0.7206    3.7788 C   0  0  0  0  0  0  0  0  0  0  0  0
    2.3340    0.5161    2.4669 C   0  0  0  0  0  0  0  0  0  0  0  0
    3.0721    0.9939    1.3922 C   0  0  0  0  0  0  0  0  0  0  0  0
    4.3873    1.4132    1.6256 C   0  0  0  0  0  0  0  0  0  0  0  0
    4.8957    1.5188    2.9172 C   0  0  0  0  0  0  0  0  0  0  0  0
    4.0953    1.2127    3.9974 C   0  0  0  0  0  0  0  0  0  0  0  0
    5.2662    1.7281    0.4735 C   0  0  0  0  0  0  0  0  0  0  0  0
    6.6314    1.9258    0.6409 C   0  0  0  0  0  0  0  0  0  0  0  0
    7.4238    2.2051   -0.4564 C   0  0  0  0  0  0  0  0  0  0  0  0
    6.8611    2.2785   -1.7184 C   0  0  0  0  0  0  0  0  0  0  0  0
    5.5042    2.0855   -1.8918 C   0  0  0  0  0  0  0  0  0  0  0  0
    4.6929    1.8235   -0.7968 C   0  0  0  0  0  0  0  0  0  0  0  0
    3.3671    1.6756   -0.9495 O   0  0  0  0  0  0  0  0  0  0  0  0
    2.5309    1.0224   -0.0082 C   0  0  2  0  0  0  0  0  0  0  0  0
    2.3564    0.0056   -0.3637 H   0  0  0  0  0  0  0  0  0  0  0  0
    1.2128    1.7767   -0.0038 C   0  0  0  0  0  0  0  0  0  0  0  0
    1.1756    3.1007    0.3921 C   0  0  0  0  0  0  0  0  0  0  0  0
   -0.0246    3.7861    0.4013 C   0  0  0  0  0  0  0  0  0  0  0  0
   -1.1871    3.1499    0.0047 C   0  0  0  0  0  0  0  0  0  0  0  0
   -1.1494    1.8253   -0.3918 C   0  0  0  0  0  0  0  0  0  0  0  0
    0.0505    1.1393   -0.3961 C   0  0  0  0  0  0  0  0  0  0  0  0
   -2.8285    4.0890    0.0108 Br  0  0  0  0  0  0  0  0  0  0  0  0
   -0.1642   -0.2160    5.8296 C   0  0  0  0  0  0  0  0  0  0  0  0
    0.1001    1.8974    4.5212 C   0  0  0  0  0  0  0  0  0  0  0  0
    1.6773   -1.2244    0.5385 H   0  0  0  0  0  0  0  0  0  0  0  0
    0.6361   -2.2204    1.5836 H   0  0  0  0  0  0  0  0  0  0  0  0
   -0.0590   -0.8567    0.6751 H   0  0  0  0  0  0  0  0  0  0  0  0
   -0.6813   -0.8571    3.2917 H   0  0  0  0  0  0  0  0  0  0  0  0
    2.3765    0.1264    5.7130 H   0  0  0  0  0  0  0  0  0  0  0  0
    5.9065    1.8633    3.0738 H   0  0  0  0  0  0  0  0  0  0  0  0
    4.4580    1.3563    5.0043 H   0  0  0  0  0  0  0  0  0  0  0  0
    7.0758    1.8591    1.6225 H   0  0  0  0  0  0  0  0  0  0  0  0
    8.4843    2.3644   -0.3292 H   0  0  0  0  0  0  0  0  0  0  0  0
    7.4876    2.4886   -2.5730 H   0  0  0  0  0  0  0  0  0  0  0  0
    5.0687    2.1455   -2.8783 H   0  0  0  0  0  0  0  0  0  0  0  0
    2.0839    3.5983    0.6986 H   0  0  0  0  0  0  0  0  0  0  0  0
   -0.0542    4.8192    0.7146 H   0  0  0  0  0  0  0  0  0  0  0  0
   -2.0575    1.3270   -0.6977 H   0  0  0  0  0  0  0  0  0  0  0  0
    0.0801    0.1050   -0.7057 H   0  0  0  0  0  0  0  0  0  0  0  0
    0.0909    0.3100    6.7496 H   0  0  0  0  0  0  0  0  0  0  0  0
   -1.2420   -0.1723    5.6729 H   0  0  0  0  0  0  0  0  0  0  0  0
    0.1498   -1.2569    5.9072 H   0  0  0  0  0  0  0  0  0  0  0  0
    0.6043    2.3590    3.6723 H   0  0  0  0  0  0  0  0  0  0  0  0
   -0.9783    1.9321    4.3662 H   0  0  0  0  0  0  0  0  0  0  0  0
    0.3537    2.4387    5.4327 H   0  0  0  0  0  0  0  0  0  0  0  0
  1  2  1  0  0  0  0
  1 30  1  0  0  0  0
  1 31  1  0  0  0  0
  1 32  1  0  0  0  0
  2  7  1  0  0  0  0
  2  3  2  0  0  0  0
  3  4  1  0  0  0  0
  3 33  1  0  0  0  0
  4  5  1  0  0  0  0
  4 28  1  0  0  0  0
  4 29  1  0  0  0  0
  5  6  1  0  0  0  0
  5 34  1  0  0  0  0
  6 11  2  0  0  0  0
  6  7  1  0  0  0  0
  7  8  2  0  0  0  0
  8 19  1  0  0  0  0
  8  9  1  0  0  0  0
  9 10  2  0  0  0  0
  9 12  1  0  0  0  0
 10 11  1  0  0  0  0
 10 35  1  0  0  0  0
 11 36  1  0  0  0  0
 12 17  2  0  0  0  0
 12 13  1  0  0  0  0
 13 14  2  0  0  0  0
 13 37  1  0  0  0  0
 14 15  1  0  0  0  0
 14 38  1  0  0  0  0
 15 16  2  0  0  0  0
 15 39  1  0  0  0  0
 16 17  1  0  0  0  0
 16 40  1  0  0  0  0
 17 18  1  0  0  0  0
 18 19  1  0  0  0  0
 19 20  1  0  0  0  0
 19 21  1  0  0  0  0
 21 26  2  0  0  0  0
 21 22  1  0  0  0  0
 22 23  2  0  0  0  0
 22 41  1  0  0  0  0
 23 24  1  0  0  0  0
 23 42  1  0  0  0  0
 24 25  2  0  0  0  0
 24 27  1  0  0  0  0
 25 26  1  0  0  0  0
 25 43  1  0  0  0  0
 26 44  1  0  0  0  0
 28 45  1  0  0  0  0
 28 46  1  0  0  0  0
 28 47  1  0  0  0  0
 29 48  1  0  0  0  0
 29 49  1  0  0  0  0
 29 50  1  0  0  0  0
M  END
$$$$
