decoy-263
 OpenBabel06062114513D

 40 40  0  0  0  0  0  0  0  0999 V2000
    1.3750    0.7980   -1.7360 C   0  0  0  0  0  0  0  0  0  0  0  0
    0.1410    1.0520   -1.2080 N   0  0  0  0  0  0  0  0  0  0  0  0
    2.5330    1.4820   -1.2640 C   0  0  0  0  0  0  0  0  0  0  0  0
    1.4730   -0.1150   -2.8220 C   0  0  0  0  0  0  0  0  0  0  0  0
   -0.2960    0.6510   -0.0210 C   0  0  0  0  0  0  0  0  0  0  0  0
    3.7830    1.2010   -1.8610 C   0  0  0  0  0  0  0  0  0  0  0  0
    2.4510    2.5150   -0.1970 C   0  0  0  0  0  0  0  0  0  0  0  0
    2.7410   -0.3700   -3.3930 C   0  0  0  0  0  0  0  0  0  0  0  0
    0.2750   -0.8180   -3.3530 C   0  0  0  0  0  0  0  0  0  0  0  0
   -1.6720    0.9300    0.3500 C   0  0  0  0  0  0  0  0  0  0  0  0
    0.4170    0.0210    0.7520 O   0  0  0  0  0  0  0  0  0  0  0  0
    3.8880    0.2780   -2.9120 C   0  0  0  0  0  0  0  0  0  0  0  0
   -2.6610    0.2990   -0.5910 C   0  0  0  0  0  0  0  0  0  0  0  0
   -2.7490   -1.1940   -0.4270 C   0  0  0  0  0  0  0  0  0  0  0  0
   -3.9800    1.0190   -0.6170 C   0  0  0  0  0  0  0  0  0  0  0  0
   -3.4860   -1.9250   -1.5730 C   0  0  0  0  0  0  0  0  0  0  0  0
   -4.8390    0.9590    0.6700 C   0  0  0  0  0  0  0  0  0  0  0  0
   -0.5160    1.4450   -1.8050 H   0  0  0  0  0  0  0  0  0  0  0  0
    4.6320    1.6730   -1.5400 H   0  0  0  0  0  0  0  0  0  0  0  0
    1.7280    3.2820   -0.4810 H   0  0  0  0  0  0  0  0  0  0  0  0
    3.4090    3.0090   -0.0210 H   0  0  0  0  0  0  0  0  0  0  0  0
    2.1370    2.0600    0.7420 H   0  0  0  0  0  0  0  0  0  0  0  0
    2.8410   -1.0310   -4.1680 H   0  0  0  0  0  0  0  0  0  0  0  0
   -0.1730   -1.4240   -2.5640 H   0  0  0  0  0  0  0  0  0  0  0  0
    0.5130   -1.4790   -4.1890 H   0  0  0  0  0  0  0  0  0  0  0  0
   -0.4580   -0.0880   -3.6990 H   0  0  0  0  0  0  0  0  0  0  0  0
   -1.8700    0.5980    1.3750 H   0  0  0  0  0  0  0  0  0  0  0  0
   -1.7730    2.0190    0.3470 H   0  0  0  0  0  0  0  0  0  0  0  0
    4.7990    0.0870   -3.3360 H   0  0  0  0  0  0  0  0  0  0  0  0
   -2.2720    0.4430   -1.5260 H   0  0  0  0  0  0  0  0  0  0  0  0
   -1.7400   -1.6130   -0.4020 H   0  0  0  0  0  0  0  0  0  0  0  0
   -3.2220   -1.4520    0.5240 H   0  0  0  0  0  0  0  0  0  0  0  0
   -3.7990    2.0720   -0.8500 H   0  0  0  0  0  0  0  0  0  0  0  0
   -4.5820    0.6400   -1.4450 H   0  0  0  0  0  0  0  0  0  0  0  0
   -4.5570   -1.7250   -1.5360 H   0  0  0  0  0  0  0  0  0  0  0  0
   -3.3390   -3.0030   -1.4800 H   0  0  0  0  0  0  0  0  0  0  0  0
   -3.0930   -1.6020   -2.5390 H   0  0  0  0  0  0  0  0  0  0  0  0
   -5.1490   -0.0650    0.8800 H   0  0  0  0  0  0  0  0  0  0  0  0
   -5.7360    1.5670    0.5410 H   0  0  0  0  0  0  0  0  0  0  0  0
   -4.2810    1.3450    1.5240 H   0  0  0  0  0  0  0  0  0  0  0  0
  1  3  2  0  0  0  0
  1  2  1  0  0  0  0
  1  4  1  0  0  0  0
  2  5  1  0  0  0  0
  2 18  1  0  0  0  0
  3  7  1  0  0  0  0
  3  6  1  0  0  0  0
  4  8  2  0  0  0  0
  4  9  1  0  0  0  0
  5 10  1  0  0  0  0
  5 11  2  0  0  0  0
  6 19  1  0  0  0  0
  6 12  2  0  0  0  0
  7 21  1  0  0  0  0
  7 22  1  0  0  0  0
  7 20  1  0  0  0  0
  8 12  1  0  0  0  0
  8 23  1  0  0  0  0
  9 24  1  0  0  0  0
  9 25  1  0  0  0  0
  9 26  1  0  0  0  0
 10 27  1  0  0  0  0
 10 13  1  0  0  0  0
 10 28  1  0  0  0  0
 12 29  1  0  0  0  0
 13 14  1  0  0  0  0
 13 15  1  0  0  0  0
 13 30  1  0  0  0  0
 14 31  1  0  0  0  0
 14 32  1  0  0  0  0
 14 16  1  0  0  0  0
 15 17  1  0  0  0  0
 15 33  1  0  0  0  0
 15 34  1  0  0  0  0
 16 35  1  0  0  0  0
 16 36  1  0  0  0  0
 16 37  1  0  0  0  0
 17 38  1  0  0  0  0
 17 40  1  0  0  0  0
 17 39  1  0  0  0  0
M  END
