decoy-482
 OpenBabel06062114513D

 52 54  0  0  0  0  0  0  0  0999 V2000
    0.2030    0.8970   -0.2790 C   0  0  0  0  0  0  0  0  0  0  0  0
    0.4680   -0.5890   -0.1730 C   0  0  0  0  0  0  0  0  0  0  0  0
    1.5470    1.5920   -0.3500 C   0  0  0  0  0  0  0  0  0  0  0  0
   -0.7810    1.2940   -1.3620 C   0  0  0  0  0  0  0  0  0  0  0  0
   -0.4680    1.3800    0.8970 O   0  0  0  0  0  0  0  0  0  0  0  0
    1.2020   -1.2590   -1.1810 C   0  0  0  0  0  0  0  0  0  0  0  0
    0.0050   -1.3770    0.9060 C   0  0  0  0  0  0  0  0  0  0  0  0
    2.0820    2.1050   -1.5560 C   0  0  0  0  0  0  0  0  0  0  0  0
    2.3760    1.6730    0.7930 C   0  0  0  0  0  0  0  0  0  0  0  0
   -1.0900    2.6710   -1.5450 C   0  0  0  0  0  0  0  0  0  0  0  0
   -1.4700    0.3670   -2.1900 C   0  0  0  0  0  0  0  0  0  0  0  0
    1.4650   -2.6390   -1.1080 C   0  0  0  0  0  0  0  0  0  0  0  0
    0.2710   -2.7570    0.9740 C   0  0  0  0  0  0  0  0  0  0  0  0
    3.3500    2.7120   -1.6010 C   0  0  0  0  0  0  0  0  0  0  0  0
    3.6440    2.2810    0.7440 C   0  0  0  0  0  0  0  0  0  0  0  0
   -2.0040    3.1010   -2.5230 C   0  0  0  0  0  0  0  0  0  0  0  0
   -2.3860    0.7920   -3.1700 C   0  0  0  0  0  0  0  0  0  0  0  0
    1.0130   -3.4460   -0.0270 C   0  0  0  0  0  0  0  0  0  0  0  0
    4.1810    2.8330   -0.4520 C   0  0  0  0  0  0  0  0  0  0  0  0
   -2.6500    2.1610   -3.3400 C   0  0  0  0  0  0  0  0  0  0  0  0
    1.2740   -4.8080    0.0450 N   0  0  0  0  0  0  0  0  0  0  0  0
    5.4300    3.4390   -0.4970 N   0  0  0  0  0  0  0  0  0  0  0  0
    2.0330   -5.4910   -0.9880 C   0  0  0  0  0  0  0  0  0  0  0  0
    0.8020   -5.6130    1.1580 C   0  0  0  0  0  0  0  0  0  0  0  0
    5.9600    3.9930   -1.7310 C   0  0  0  0  0  0  0  0  0  0  0  0
    6.2640    3.5480    0.6870 C   0  0  0  0  0  0  0  0  0  0  0  0
    0.0830    1.1090    1.6600 H   0  0  0  0  0  0  0  0  0  0  0  0
    1.5490   -0.7410   -1.9920 H   0  0  0  0  0  0  0  0  0  0  0  0
   -0.5420   -0.9590    1.6610 H   0  0  0  0  0  0  0  0  0  0  0  0
    1.5570    2.0280   -2.4300 H   0  0  0  0  0  0  0  0  0  0  0  0
    2.0660    1.2780    1.6840 H   0  0  0  0  0  0  0  0  0  0  0  0
   -0.6400    3.3800   -0.9600 H   0  0  0  0  0  0  0  0  0  0  0  0
   -1.3280   -0.6380   -2.0880 H   0  0  0  0  0  0  0  0  0  0  0  0
    2.0010   -3.0410   -1.8770 H   0  0  0  0  0  0  0  0  0  0  0  0
   -0.0990   -3.2510    1.7870 H   0  0  0  0  0  0  0  0  0  0  0  0
    3.6550    3.0610   -2.5100 H   0  0  0  0  0  0  0  0  0  0  0  0
    4.1710    2.3040    1.6170 H   0  0  0  0  0  0  0  0  0  0  0  0
   -2.2010    4.0980   -2.6380 H   0  0  0  0  0  0  0  0  0  0  0  0
   -2.8660    0.1050   -3.7550 H   0  0  0  0  0  0  0  0  0  0  0  0
   -3.3180    2.4700   -4.0500 H   0  0  0  0  0  0  0  0  0  0  0  0
    2.1710   -6.5590   -0.8140 H   0  0  0  0  0  0  0  0  0  0  0  0
    1.5220   -5.3920   -1.9480 H   0  0  0  0  0  0  0  0  0  0  0  0
    3.0310   -5.0540   -1.0650 H   0  0  0  0  0  0  0  0  0  0  0  0
   -0.2880   -5.5730    1.2090 H   0  0  0  0  0  0  0  0  0  0  0  0
    1.0740   -6.6690    1.0980 H   0  0  0  0  0  0  0  0  0  0  0  0
    1.2200   -5.2350    2.0930 H   0  0  0  0  0  0  0  0  0  0  0  0
    6.9490    4.4450   -1.6330 H   0  0  0  0  0  0  0  0  0  0  0  0
    6.0480    3.2070   -2.4830 H   0  0  0  0  0  0  0  0  0  0  0  0
    5.2940    4.7740   -2.1030 H   0  0  0  0  0  0  0  0  0  0  0  0
    5.7410    4.1190    1.4570 H   0  0  0  0  0  0  0  0  0  0  0  0
    6.4930    2.5520    1.0720 H   0  0  0  0  0  0  0  0  0  0  0  0
    7.2200    4.0480    0.5210 H   0  0  0  0  0  0  0  0  0  0  0  0
  1  2  1  0  0  0  0
  1  5  1  0  0  0  0
  1  3  1  0  0  0  0
  1  4  1  0  0  0  0
  2  7  2  0  0  0  0
  2  6  1  0  0  0  0
  3  9  2  0  0  0  0
  3  8  1  0  0  0  0
  4 10  2  0  0  0  0
  4 11  1  0  0  0  0
  5 27  1  0  0  0  0
  6 12  2  0  0  0  0
  6 28  1  0  0  0  0
  7 13  1  0  0  0  0
  7 29  1  0  0  0  0
  8 14  2  0  0  0  0
  8 30  1  0  0  0  0
  9 31  1  0  0  0  0
  9 15  1  0  0  0  0
 10 32  1  0  0  0  0
 10 16  1  0  0  0  0
 11 33  1  0  0  0  0
 11 17  2  0  0  0  0
 12 18  1  0  0  0  0
 12 34  1  0  0  0  0
 13 35  1  0  0  0  0
 13 18  2  0  0  0  0
 14 19  1  0  0  0  0
 14 36  1  0  0  0  0
 15 37  1  0  0  0  0
 15 19  2  0  0  0  0
 16 20  2  0  0  0  0
 16 38  1  0  0  0  0
 17 20  1  0  0  0  0
 17 39  1  0  0  0  0
 18 21  1  0  0  0  0
 19 22  1  0  0  0  0
 20 40  1  0  0  0  0
 21 24  1  0  0  0  0
 21 23  1  0  0  0  0
 22 26  1  0  0  0  0
 22 25  1  0  0  0  0
 23 41  1  0  0  0  0
 23 42  1  0  0  0  0
 23 43  1  0  0  0  0
 24 44  1  0  0  0  0
 24 46  1  0  0  0  0
 24 45  1  0  0  0  0
 25 47  1  0  0  0  0
 25 48  1  0  0  0  0
 25 49  1  0  0  0  0
 26 51  1  0  0  0  0
 26 50  1  0  0  0  0
 26 52  1  0  0  0  0
M  END
