decoy-107
 OpenBabel06062114503D

 56 62  0  0  0  0  0  0  0  0999 V2000
    0.0530    1.5240   -0.2370 C   0  0  0  0  0  0  0  0  0  0  0  0
    0.1270   -0.0300   -0.0050 C   0  0  0  0  0  0  0  0  0  0  0  0
    1.4820    1.8660   -0.1130 C   0  0  0  0  0  0  0  0  0  0  0  0
   -1.0210    2.2510    0.6410 C   0  0  0  0  0  0  0  0  0  0  0  0
   -0.4430    1.9010   -1.6590 C   0  0  0  0  0  0  0  0  0  0  0  0
   -0.3260   -0.5640    1.3930 C   0  0  0  0  0  0  0  0  0  0  0  0
    1.5070   -0.4020   -0.1300 N   0  0  0  0  0  0  0  0  0  0  0  0
    2.2870    0.7180   -0.1640 C   0  0  0  0  0  0  0  0  0  0  0  0
    2.0560    3.1530   -0.0710 C   0  0  0  0  0  0  0  0  0  0  0  0
   -2.3100    2.1440   -0.1300 *   0  0  0  0  0  0  0  0  0  0  0  0
   -1.1630    1.6730    2.0780 C   0  0  0  0  0  0  0  0  0  0  0  0
   -1.9720    1.8240   -1.5450 C   0  0  0  0  0  0  0  0  0  0  0  0
   -1.5950    0.1760    1.9210 C   0  0  0  0  0  0  0  0  0  0  0  0
   -0.3340   -2.1250    1.3190 C   0  0  0  0  0  0  0  0  0  0  0  0
    1.8760   -1.6840    0.0230 C   0  0  0  0  0  0  0  0  0  0  0  0
    3.6930    0.8580   -0.1440 C   0  0  0  0  0  0  0  0  0  0  0  0
    3.4590    3.2910   -0.0390 C   0  0  0  0  0  0  0  0  0  0  0  0
   -3.3630    1.2490    0.4630 C   0  0  0  0  0  0  0  0  0  0  0  0
   -2.7860    0.0260    1.0490 C   0  0  0  0  0  0  0  0  0  0  0  0
    0.9940   -2.6700    0.6640 C   0  0  0  0  0  0  0  0  0  0  0  0
   -1.4600   -2.6600    0.5890 O   0  0  0  0  0  0  0  0  0  0  0  0
    3.0080   -2.0580   -0.2520 O   0  0  0  0  0  0  0  0  0  0  0  0
    4.2790    2.1410   -0.1080 C   0  0  0  0  0  0  0  0  0  0  0  0
    4.0160    4.5410   -0.0120 O   0  0  0  0  0  0  0  0  0  0  0  0
   -3.3160   -1.1770    0.7430 C   0  0  0  0  0  0  0  0  0  0  0  0
   -2.7690   -2.4550    1.1520 C   0  0  0  0  0  0  0  0  0  0  0  0
    5.6420    2.2620   -0.0720 O   0  0  0  0  0  0  0  0  0  0  0  0
    4.2300    5.0350    1.3210 C   0  0  0  0  0  0  0  0  0  0  0  0
    6.2370    2.3500   -1.3780 C   0  0  0  0  0  0  0  0  0  0  0  0
   -0.4550   -0.5390   -0.7830 H   0  0  0  0  0  0  0  0  0  0  0  0
    0.4680   -0.3390    2.1190 H   0  0  0  0  0  0  0  0  0  0  0  0
   -1.8400   -0.2080    2.9170 H   0  0  0  0  0  0  0  0  0  0  0  0
   -0.3840   -2.5150    2.3430 H   0  0  0  0  0  0  0  0  0  0  0  0
   -0.7740    3.3140    0.7240 H   0  0  0  0  0  0  0  0  0  0  0  0
   -0.1580    2.9270   -1.9180 H   0  0  0  0  0  0  0  0  0  0  0  0
   -0.0600    1.2310   -2.4340 H   0  0  0  0  0  0  0  0  0  0  0  0
    1.4630    3.9850   -0.0680 H   0  0  0  0  0  0  0  0  0  0  0  0
   -0.2240    1.7860    2.6280 H   0  0  0  0  0  0  0  0  0  0  0  0
   -1.9210    2.2320    2.6340 H   0  0  0  0  0  0  0  0  0  0  0  0
   -2.4470    2.5460   -2.2150 H   0  0  0  0  0  0  0  0  0  0  0  0
   -2.2980    0.8210   -1.8390 H   0  0  0  0  0  0  0  0  0  0  0  0
    4.3020    0.0400   -0.1510 H   0  0  0  0  0  0  0  0  0  0  0  0
   -3.8570    1.8000    1.2660 H   0  0  0  0  0  0  0  0  0  0  0  0
   -4.1450    1.0490   -0.2780 H   0  0  0  0  0  0  0  0  0  0  0  0
    1.5720   -3.1580    1.4560 H   0  0  0  0  0  0  0  0  0  0  0  0
    0.7590   -3.4410   -0.0740 H   0  0  0  0  0  0  0  0  0  0  0  0
   -4.1260   -1.2090    0.1660 H   0  0  0  0  0  0  0  0  0  0  0  0
   -3.4040   -3.2540    0.7620 H   0  0  0  0  0  0  0  0  0  0  0  0
   -2.7770   -2.5450    2.2420 H   0  0  0  0  0  0  0  0  0  0  0  0
    4.6760    6.0270    1.2480 H   0  0  0  0  0  0  0  0  0  0  0  0
    3.2880    5.1250    1.8680 H   0  0  0  0  0  0  0  0  0  0  0  0
    4.9160    4.3930    1.8790 H   0  0  0  0  0  0  0  0  0  0  0  0
    7.3160    2.4460   -1.2540 H   0  0  0  0  0  0  0  0  0  0  0  0
    6.0410    1.4490   -1.9650 H   0  0  0  0  0  0  0  0  0  0  0  0
    5.8770    3.2260   -1.9230 H   0  0  0  0  0  0  0  0  0  0  0  0
   -2.7160    3.0820   -0.1390 H   0  0  0  0  0  0  0  0  0  0  0  0
  1  3  1  0  0  0  0
  1  2  1  0  0  0  0
  1  4  1  0  0  0  0
  1  5  1  0  0  0  0
  2  6  1  0  0  0  0
  2  7  1  0  0  0  0
  2 30  1  0  0  0  0
  3  9  2  0  0  0  0
  3  8  1  0  0  0  0
  4 34  1  0  0  0  0
  4 11  1  0  0  0  0
  4 10  1  0  0  0  0
  5 12  1  0  0  0  0
  5 35  1  0  0  0  0
  5 36  1  0  0  0  0
  6 14  1  0  0  0  0
  6 31  1  0  0  0  0
  6 13  1  0  0  0  0
  7 15  1  0  0  0  0
  7  8  1  0  0  0  0
  8 16  2  0  0  0  0
  9 37  1  0  0  0  0
  9 17  1  0  0  0  0
 10 18  1  0  0  0  0
 10 12  1  0  0  0  0
 10 56  1  0  0  0  0
 11 38  1  0  0  0  0
 11 39  1  0  0  0  0
 11 13  1  0  0  0  0
 12 40  1  0  0  0  0
 12 41  1  0  0  0  0
 13 32  1  0  0  0  0
 13 19  1  0  0  0  0
 14 33  1  0  0  0  0
 14 20  1  0  0  0  0
 14 21  1  0  0  0  0
 15 20  1  0  0  0  0
 15 22  2  0  0  0  0
 16 23  1  0  0  0  0
 16 42  1  0  0  0  0
 17 24  1  0  0  0  0
 17 23  2  0  0  0  0
 18 19  1  0  0  0  0
 18 43  1  0  0  0  0
 18 44  1  0  0  0  0
 19 25  2  0  0  0  0
 20 45  1  0  0  0  0
 20 46  1  0  0  0  0
 21 26  1  0  0  0  0
 23 27  1  0  0  0  0
 24 28  1  0  0  0  0
 25 26  1  0  0  0  0
 25 47  1  0  0  0  0
 26 49  1  0  0  0  0
 26 48  1  0  0  0  0
 27 29  1  0  0  0  0
 28 51  1  0  0  0  0
 28 52  1  0  0  0  0
 28 50  1  0  0  0  0
 29 53  1  0  0  0  0
 29 54  1  0  0  0  0
 29 55  1  0  0  0  0
M  END
