decoy-831
 OpenBabel06062114513D

 57 60  0  0  0  0  0  0  0  0999 V2000
    1.0460    1.2010   -0.4160 C   0  0  0  0  0  0  0  0  0  0  0  0
    0.0890    0.4800   -1.4540 C   0  0  0  0  0  0  0  0  0  0  0  0
    2.4410    1.6060   -1.0890 C   0  0  0  0  0  0  0  0  0  0  0  0
    0.2810    2.3200    0.3980 C   0  0  0  0  0  0  0  0  0  0  0  0
    1.3590    0.2560    0.5560 F   0  0  0  0  0  0  0  0  0  0  0  0
   -1.2530    0.0510   -0.7690 C   0  0  0  0  0  0  0  0  0  0  0  0
    0.8110   -0.7320   -2.1250 C   0  0  0  0  0  0  0  0  0  0  0  0
    3.0040    0.3750   -1.7390 C   0  0  0  0  0  0  0  0  0  0  0  0
    3.3560    2.1510   -0.0550 C   0  0  0  0  0  0  0  0  0  0  0  0
    2.3630    2.7220   -2.1960 C   0  0  0  0  0  0  0  0  0  0  0  0
   -1.1220    1.8820    0.9350 C   0  0  0  0  0  0  0  0  0  0  0  0
    0.1300    3.5440   -0.3150 O   0  0  0  0  0  0  0  0  0  0  0  0
   -2.0670    1.2330   -0.1430 C   0  0  0  0  0  0  0  0  0  0  0  0
   -2.2980   -0.7520   -1.5670 C   0  0  0  0  0  0  0  0  0  0  0  0
    2.1840   -0.3420   -2.7240 C   0  0  0  0  0  0  0  0  0  0  0  0
    4.2150   -0.1130   -1.3810 C   0  0  0  0  0  0  0  0  0  0  0  0
    4.5450    1.5960    0.2340 C   0  0  0  0  0  0  0  0  0  0  0  0
   -3.3440    0.4590    0.3920 C   0  0  0  0  0  0  0  0  0  0  0  0
   -2.5140    2.3290   -1.1900 C   0  0  0  0  0  0  0  0  0  0  0  0
   -3.6280   -0.5780   -0.7730 C   0  0  0  0  0  0  0  0  0  0  0  0
    4.9740    0.4860   -0.4220 C   0  0  0  0  0  0  0  0  0  0  0  0
   -4.5140    1.2790    0.7870 C   0  0  0  0  0  0  0  0  0  0  0  0
   -3.0250   -0.2750    1.5850 O   0  0  0  0  0  0  0  0  0  0  0  0
   -4.2530   -1.9300   -0.3280 C   0  0  0  0  0  0  0  0  0  0  0  0
    6.0660    0.0100   -0.1360 O   0  0  0  0  0  0  0  0  0  0  0  0
   -4.5000    2.2840    1.8440 C   0  0  0  0  0  0  0  0  0  0  0  0
   -5.6010    1.0830    0.2550 O   0  0  0  0  0  0  0  0  0  0  0  0
   -4.0470    1.7620    3.0870 O   0  0  0  0  0  0  0  0  0  0  0  0
   -0.1540    1.1700   -2.2600 H   0  0  0  0  0  0  0  0  0  0  0  0
   -0.9450   -0.6280    0.0360 H   0  0  0  0  0  0  0  0  0  0  0  0
    0.8740    2.5800    1.2800 H   0  0  0  0  0  0  0  0  0  0  0  0
    0.9590   -1.5300   -1.3910 H   0  0  0  0  0  0  0  0  0  0  0  0
    0.1890   -1.1340   -2.9290 H   0  0  0  0  0  0  0  0  0  0  0  0
    3.0990    2.9770    0.4360 H   0  0  0  0  0  0  0  0  0  0  0  0
    1.5730    2.5280   -2.9200 H   0  0  0  0  0  0  0  0  0  0  0  0
    3.3060    2.7820   -2.7460 H   0  0  0  0  0  0  0  0  0  0  0  0
    2.1830    3.7140   -1.7830 H   0  0  0  0  0  0  0  0  0  0  0  0
   -0.9540    1.1700    1.7480 H   0  0  0  0  0  0  0  0  0  0  0  0
   -1.6020    2.7500    1.3860 H   0  0  0  0  0  0  0  0  0  0  0  0
    1.0050    3.9780   -0.2650 H   0  0  0  0  0  0  0  0  0  0  0  0
   -2.3910   -0.3420   -2.5780 H   0  0  0  0  0  0  0  0  0  0  0  0
   -1.9970   -1.8000   -1.6550 H   0  0  0  0  0  0  0  0  0  0  0  0
    2.6650   -1.2560   -3.0860 H   0  0  0  0  0  0  0  0  0  0  0  0
    2.0300    0.2930   -3.5990 H   0  0  0  0  0  0  0  0  0  0  0  0
    4.5650   -0.9380   -1.8140 H   0  0  0  0  0  0  0  0  0  0  0  0
    5.1190    2.0140    0.9320 H   0  0  0  0  0  0  0  0  0  0  0  0
   -1.6850    2.7270   -1.7670 H   0  0  0  0  0  0  0  0  0  0  0  0
   -2.9850    3.1720   -0.6850 H   0  0  0  0  0  0  0  0  0  0  0  0
   -3.2340    1.9390   -1.9090 H   0  0  0  0  0  0  0  0  0  0  0  0
   -4.3440   -0.1420   -1.4780 H   0  0  0  0  0  0  0  0  0  0  0  0
   -2.3330   -0.9210    1.3420 H   0  0  0  0  0  0  0  0  0  0  0  0
   -4.5050   -2.5320   -1.2030 H   0  0  0  0  0  0  0  0  0  0  0  0
   -5.1670   -1.7540    0.2420 H   0  0  0  0  0  0  0  0  0  0  0  0
   -3.5560   -2.4980    0.2920 H   0  0  0  0  0  0  0  0  0  0  0  0
   -3.8610    3.1170    1.5610 H   0  0  0  0  0  0  0  0  0  0  0  0
   -5.4990    2.6970    2.0130 H   0  0  0  0  0  0  0  0  0  0  0  0
   -4.6920    1.0600    3.3180 H   0  0  0  0  0  0  0  0  0  0  0  0
  1  2  1  0  0  0  0
  1  5  1  0  0  0  0
  1  3  1  0  0  0  0
  1  4  1  0  0  0  0
  2  6  1  0  0  0  0
  2  7  1  0  0  0  0
  2 29  1  0  0  0  0
  3  9  1  0  0  0  0
  3  8  1  0  0  0  0
  3 10  1  0  0  0  0
  4 11  1  0  0  0  0
  4 31  1  0  0  0  0
  4 12  1  0  0  0  0
  6 13  1  0  0  0  0
  6 30  1  0  0  0  0
  6 14  1  0  0  0  0
  7 32  1  0  0  0  0
  7 15  1  0  0  0  0
  7 33  1  0  0  0  0
  8 16  2  0  0  0  0
  8 15  1  0  0  0  0
  9 17  2  0  0  0  0
  9 34  1  0  0  0  0
 10 37  1  0  0  0  0
 10 35  1  0  0  0  0
 10 36  1  0  0  0  0
 11 39  1  0  0  0  0
 11 38  1  0  0  0  0
 11 13  1  0  0  0  0
 12 40  1  0  0  0  0
 13 18  1  0  0  0  0
 13 19  1  0  0  0  0
 14 20  1  0  0  0  0
 14 41  1  0  0  0  0
 14 42  1  0  0  0  0
 15 43  1  0  0  0  0
 15 44  1  0  0  0  0
 16 21  1  0  0  0  0
 16 45  1  0  0  0  0
 17 46  1  0  0  0  0
 17 21  1  0  0  0  0
 18 20  1  0  0  0  0
 18 22  1  0  0  0  0
 18 23  1  0  0  0  0
 19 48  1  0  0  0  0
 19 47  1  0  0  0  0
 19 49  1  0  0  0  0
 20 50  1  0  0  0  0
 20 24  1  0  0  0  0
 21 25  2  0  0  0  0
 22 26  1  0  0  0  0
 22 27  2  0  0  0  0
 23 51  1  0  0  0  0
 24 53  1  0  0  0  0
 24 54  1  0  0  0  0
 24 52  1  0  0  0  0
 26 56  1  0  0  0  0
 26 28  1  0  0  0  0
 26 55  1  0  0  0  0
 28 57  1  0  0  0  0
M  END
