decoy-960
 OpenBabel06062114513D

 48 50  0  0  0  0  0  0  0  0999 V2000
    0.3460   -0.3300   -0.3400 C   0  0  0  0  0  0  0  0  0  0  0  0
    0.2950    1.1170   -0.0370 C   0  0  0  0  0  0  0  0  0  0  0  0
   -0.2560   -1.1130    0.7640 C   0  0  0  0  0  0  0  0  0  0  0  0
    1.7180   -0.7410   -0.7100 C   0  0  0  0  0  0  0  0  0  0  0  0
   -0.4750    1.9820   -0.7960 C   0  0  0  0  0  0  0  0  0  0  0  0
    0.9890    1.6610    1.0030 C   0  0  0  0  0  0  0  0  0  0  0  0
    0.4940   -2.0440    1.4080 C   0  0  0  0  0  0  0  0  0  0  0  0
   -1.5880   -0.8780    1.0830 C   0  0  0  0  0  0  0  0  0  0  0  0
    2.3580   -1.6830    0.0260 C   0  0  0  0  0  0  0  0  0  0  0  0
    2.3000   -0.1560   -1.8220 C   0  0  0  0  0  0  0  0  0  0  0  0
   -0.5340    3.2830   -0.5290 C   0  0  0  0  0  0  0  0  0  0  0  0
   -1.2360    1.8060   -1.8020 N   0  0  0  0  0  0  0  0  0  0  0  0
    0.9270    3.0120    1.2750 C   0  0  0  0  0  0  0  0  0  0  0  0
    1.7420   -2.2350    1.0460 N   0  0  0  0  0  0  0  0  0  0  0  0
   -0.0110   -2.8890    2.4860 C   0  0  0  0  0  0  0  0  0  0  0  0
   -2.5280   -0.9630    0.1050 O   0  0  0  0  0  0  0  0  0  0  0  0
   -1.9100   -0.4190    2.3160 O   0  0  0  0  0  0  0  0  0  0  0  0
    3.7130   -2.1450   -0.2570 C   0  0  0  0  0  0  0  0  0  0  0  0
    3.2450    0.8040   -1.6440 O   0  0  0  0  0  0  0  0  0  0  0  0
    1.8690   -0.5060   -3.0570 O   0  0  0  0  0  0  0  0  0  0  0  0
    0.1660    3.8260    0.5100 C   0  0  0  0  0  0  0  0  0  0  0  0
   -1.3200    3.7980   -1.3850 N   0  0  0  0  0  0  0  0  0  0  0  0
   -1.7760    2.9080   -2.1970 O   0  0  0  0  0  0  0  0  0  0  0  0
   -3.9350   -0.6970    0.2030 C   0  0  0  0  0  0  0  0  0  0  0  0
    3.9080    1.5270   -2.6820 C   0  0  0  0  0  0  0  0  0  0  0  0
   -4.5040   -0.6290   -1.2330 C   0  0  0  0  0  0  0  0  0  0  0  0
   -4.6530   -1.7780    1.0500 C   0  0  0  0  0  0  0  0  0  0  0  0
   -0.2640   -0.5550   -1.2230 H   0  0  0  0  0  0  0  0  0  0  0  0
    1.5540    1.0840    1.5830 H   0  0  0  0  0  0  0  0  0  0  0  0
    1.4440    3.3880    2.0360 H   0  0  0  0  0  0  0  0  0  0  0  0
    2.2320   -2.8580    1.5430 H   0  0  0  0  0  0  0  0  0  0  0  0
   -0.2910   -2.2740    3.3430 H   0  0  0  0  0  0  0  0  0  0  0  0
    0.7310   -3.6140    2.8280 H   0  0  0  0  0  0  0  0  0  0  0  0
   -0.8870   -3.4460    2.1460 H   0  0  0  0  0  0  0  0  0  0  0  0
    3.7620   -2.5590   -1.2660 H   0  0  0  0  0  0  0  0  0  0  0  0
    4.0420   -2.9210    0.4390 H   0  0  0  0  0  0  0  0  0  0  0  0
    4.4140   -1.3110   -0.1810 H   0  0  0  0  0  0  0  0  0  0  0  0
    0.1140    4.8000    0.6980 H   0  0  0  0  0  0  0  0  0  0  0  0
   -4.0820    0.2810    0.6710 H   0  0  0  0  0  0  0  0  0  0  0  0
    4.4560    0.8420   -3.3300 H   0  0  0  0  0  0  0  0  0  0  0  0
    4.6120    2.2270   -2.2310 H   0  0  0  0  0  0  0  0  0  0  0  0
    3.1820    2.0880   -3.2740 H   0  0  0  0  0  0  0  0  0  0  0  0
   -3.9900    0.1500   -1.8000 H   0  0  0  0  0  0  0  0  0  0  0  0
   -5.5700   -0.3910   -1.2100 H   0  0  0  0  0  0  0  0  0  0  0  0
   -4.3660   -1.5820   -1.7460 H   0  0  0  0  0  0  0  0  0  0  0  0
   -4.4930   -2.7670    0.6180 H   0  0  0  0  0  0  0  0  0  0  0  0
   -5.7250   -1.5780    1.0910 H   0  0  0  0  0  0  0  0  0  0  0  0
   -4.2660   -1.7780    2.0700 H   0  0  0  0  0  0  0  0  0  0  0  0
  1 28  1  0  0  0  0
  1  2  1  0  0  0  0
  1  3  1  0  0  0  0
  1  4  1  0  0  0  0
  2  6  2  0  0  0  0
  2  5  1  0  0  0  0
  3  8  1  0  0  0  0
  3  7  2  0  0  0  0
  4  9  2  0  0  0  0
  4 10  1  0  0  0  0
  5 11  1  0  0  0  0
  5 12  2  0  0  0  0
  6 13  1  0  0  0  0
  6 29  1  0  0  0  0
  7 15  1  0  0  0  0
  7 14  1  0  0  0  0
  8 17  2  0  0  0  0
  8 16  1  0  0  0  0
  9 14  1  0  0  0  0
  9 18  1  0  0  0  0
 10 19  1  0  0  0  0
 10 20  2  0  0  0  0
 11 21  1  0  0  0  0
 11 22  2  0  0  0  0
 12 23  1  0  0  0  0
 13 30  1  0  0  0  0
 13 21  2  0  0  0  0
 14 31  1  0  0  0  0
 15 33  1  0  0  0  0
 15 32  1  0  0  0  0
 15 34  1  0  0  0  0
 16 24  1  0  0  0  0
 18 37  1  0  0  0  0
 18 36  1  0  0  0  0
 18 35  1  0  0  0  0
 19 25  1  0  0  0  0
 21 38  1  0  0  0  0
 22 23  1  0  0  0  0
 24 39  1  0  0  0  0
 24 27  1  0  0  0  0
 24 26  1  0  0  0  0
 25 41  1  0  0  0  0
 25 40  1  0  0  0  0
 25 42  1  0  0  0  0
 26 44  1  0  0  0  0
 26 43  1  0  0  0  0
 26 45  1  0  0  0  0
 27 47  1  0  0  0  0
 27 48  1  0  0  0  0
 27 46  1  0  0  0  0
M  END
