decoy-50
 OpenBabel06062114503D

 15 15  0  0  0  0  0  0  0  0999 V2000
   -0.0710    1.3820    0.0060 C   0  0  0  0  0  0  0  0  0  0  0  0
   -0.0260   -0.0400    0.0000 C   0  0  0  0  0  0  0  0  0  0  0  0
    1.1560    2.0990   -0.0020 C   0  0  0  0  0  0  0  0  0  0  0  0
   -1.3490    2.1390    0.0210 C   0  0  0  0  0  0  0  0  0  0  0  0
    1.2120   -0.7110   -0.0140 C   0  0  0  0  0  0  0  0  0  0  0  0
   -1.5460   -1.1220    0.0080 Br  0  0  0  0  0  0  0  0  0  0  0  0
    2.3860    1.4140   -0.0160 C   0  0  0  0  0  0  0  0  0  0  0  0
    1.2320    3.9640    0.0060 Br  0  0  0  0  0  0  0  0  0  0  0  0
    2.4160    0.0110   -0.0220 C   0  0  0  0  0  0  0  0  0  0  0  0
    4.0450   -0.8880   -0.0400 Br  0  0  0  0  0  0  0  0  0  0  0  0
   -2.2320    1.5020    0.0260 H   0  0  0  0  0  0  0  0  0  0  0  0
   -1.3930    2.7680    0.9120 H   0  0  0  0  0  0  0  0  0  0  0  0
   -1.4080    2.7750   -0.8640 H   0  0  0  0  0  0  0  0  0  0  0  0
    1.2400   -1.7320   -0.0190 H   0  0  0  0  0  0  0  0  0  0  0  0
    3.2630    1.9370   -0.0210 H   0  0  0  0  0  0  0  0  0  0  0  0
  1  4  1  0  0  0  0
  1  2  2  0  0  0  0
  1  3  1  0  0  0  0
  2  6  1  0  0  0  0
  2  5  1  0  0  0  0
  3  8  1  0  0  0  0
  3  7  2  0  0  0  0
  4 11  1  0  0  0  0
  4 12  1  0  0  0  0
  4 13  1  0  0  0  0
  5  9  2  0  0  0  0
  5 14  1  0  0  0  0
  7  9  1  0  0  0  0
  7 15  1  0  0  0  0
  9 10  1  0  0  0  0
M  END
