decoy-912
 OpenBabel06062114513D

 42 43  0  0  0  0  0  0  0  0999 V2000
    0.0130    1.0610    0.1910 C   0  0  0  0  0  0  0  0  0  0  0  0
    0.3280   -0.1490    0.7880 N   0  0  0  0  0  0  0  0  0  0  0  0
   -1.3360    1.4750   -0.0230 C   0  0  0  0  0  0  0  0  0  0  0  0
    1.0190    1.9690   -0.2490 C   0  0  0  0  0  0  0  0  0  0  0  0
   -0.6260   -1.0030    1.1990 C   0  0  0  0  0  0  0  0  0  0  0  0
    1.6910   -0.5730    1.0440 C   0  0  0  0  0  0  0  0  0  0  0  0
   -1.6560    2.7030   -0.6310 C   0  0  0  0  0  0  0  0  0  0  0  0
    0.7050    3.1990   -0.8570 C   0  0  0  0  0  0  0  0  0  0  0  0
   -1.0900   -1.9870    0.4080 C   0  0  0  0  0  0  0  0  0  0  0  0
   -0.6340    3.5670   -1.0490 C   0  0  0  0  0  0  0  0  0  0  0  0
   -2.0590   -2.8630    0.7920 C   0  0  0  0  0  0  0  0  0  0  0  0
   -2.5260   -3.8430   -0.0040 C   0  0  0  0  0  0  0  0  0  0  0  0
   -3.5060   -4.7100    0.3810 C   0  0  0  0  0  0  0  0  0  0  0  0
   -3.6410   -5.9950    0.0210 N   0  0  0  0  0  0  0  0  0  0  0  0
   -4.7050   -6.7580    0.4780 C   0  0  0  0  0  0  0  0  0  0  0  0
   -2.6520   -6.5920   -0.8690 C   0  0  0  0  0  0  0  0  0  0  0  0
   -5.2870   -7.7810   -0.3230 C   0  0  0  0  0  0  0  0  0  0  0  0
   -5.2830   -6.5650    1.7660 C   0  0  0  0  0  0  0  0  0  0  0  0
   -6.3690   -8.5590    0.1270 C   0  0  0  0  0  0  0  0  0  0  0  0
   -6.3630   -7.3420    2.2250 C   0  0  0  0  0  0  0  0  0  0  0  0
   -6.9080   -8.3410    1.4040 C   0  0  0  0  0  0  0  0  0  0  0  0
   -2.1170    0.8830    0.2640 H   0  0  0  0  0  0  0  0  0  0  0  0
    2.0090    1.7520   -0.1360 H   0  0  0  0  0  0  0  0  0  0  0  0
   -0.9890   -0.8820    2.1180 H   0  0  0  0  0  0  0  0  0  0  0  0
    2.2370   -0.6490    0.1020 H   0  0  0  0  0  0  0  0  0  0  0  0
    2.1900    0.1520    1.6890 H   0  0  0  0  0  0  0  0  0  0  0  0
    1.7680   -1.5480    1.5380 H   0  0  0  0  0  0  0  0  0  0  0  0
   -2.6350    2.9670   -0.7680 H   0  0  0  0  0  0  0  0  0  0  0  0
    1.4540    3.8260   -1.1610 H   0  0  0  0  0  0  0  0  0  0  0  0
   -0.7000   -2.0690   -0.5050 H   0  0  0  0  0  0  0  0  0  0  0  0
   -0.8640    4.4600   -1.4910 H   0  0  0  0  0  0  0  0  0  0  0  0
   -2.4370   -2.7790    1.7110 H   0  0  0  0  0  0  0  0  0  0  0  0
   -2.1560   -3.9340   -0.9230 H   0  0  0  0  0  0  0  0  0  0  0  0
   -4.2240   -4.2940    0.9300 H   0  0  0  0  0  0  0  0  0  0  0  0
   -1.6390   -6.3730   -0.5190 H   0  0  0  0  0  0  0  0  0  0  0  0
   -2.7080   -7.6800   -0.9240 H   0  0  0  0  0  0  0  0  0  0  0  0
   -2.7700   -6.1930   -1.8790 H   0  0  0  0  0  0  0  0  0  0  0  0
   -4.9610   -7.9430   -1.2780 H   0  0  0  0  0  0  0  0  0  0  0  0
   -4.8900   -5.8810    2.4160 H   0  0  0  0  0  0  0  0  0  0  0  0
   -6.7720   -9.2780   -0.4790 H   0  0  0  0  0  0  0  0  0  0  0  0
   -6.7460   -7.1860    3.1600 H   0  0  0  0  0  0  0  0  0  0  0  0
   -7.6930   -8.9060    1.7340 H   0  0  0  0  0  0  0  0  0  0  0  0
  1  2  1  0  0  0  0
  1  3  2  0  0  0  0
  1  4  1  0  0  0  0
  2  6  1  0  0  0  0
  2  5  1  0  0  0  0
  3 22  1  0  0  0  0
  3  7  1  0  0  0  0
  4 23  1  0  0  0  0
  4  8  2  0  0  0  0
  5 24  1  0  0  0  0
  5  9  2  0  0  0  0
  6 27  1  0  0  0  0
  6 26  1  0  0  0  0
  6 25  1  0  0  0  0
  7 10  2  0  0  0  0
  7 28  1  0  0  0  0
  8 10  1  0  0  0  0
  8 29  1  0  0  0  0
  9 11  1  0  0  0  0
  9 30  1  0  0  0  0
 10 31  1  0  0  0  0
 11 32  1  0  0  0  0
 11 12  2  0  0  0  0
 12 13  1  0  0  0  0
 12 33  1  0  0  0  0
 13 34  1  0  0  0  0
 13 14  1  0  0  0  0
 14 15  1  0  0  0  0
 14 16  1  0  0  0  0
 15 18  2  0  0  0  0
 15 17  1  0  0  0  0
 16 35  1  0  0  0  0
 16 36  1  0  0  0  0
 16 37  1  0  0  0  0
 17 19  2  0  0  0  0
 17 38  1  0  0  0  0
 18 20  1  0  0  0  0
 18 39  1  0  0  0  0
 19 21  1  0  0  0  0
 19 40  1  0  0  0  0
 20 41  1  0  0  0  0
 20 21  2  0  0  0  0
 21 42  1  0  0  0  0
M  END
