decoy-47
 OpenBabel06062114503D

 52 54  0  0  0  0  0  0  0  0999 V2000
   -0.0770    1.3710    0.5170 C   0  0  0  0  0  0  0  0  0  0  0  0
    0.2310   -0.2040   -0.0460 P   0  0  0  0  0  0  0  0  0  0  0  0
    1.1080    2.4140    0.3690 C   0  0  0  0  0  0  0  0  0  0  0  0
   -0.8340    1.5230    1.8860 C   0  0  0  0  0  0  0  0  0  0  0  0
   -1.1640   -0.9940   -0.3170 C   0  0  0  0  0  0  0  0  0  0  0  0
    1.2430   -0.9950    0.9260 C   0  0  0  0  0  0  0  0  0  0  0  0
    2.0030    2.4080    1.6510 C   0  0  0  0  0  0  0  0  0  0  0  0
    1.9240    2.3700   -0.9900 C   0  0  0  0  0  0  0  0  0  0  0  0
    0.0460    1.7180    3.1630 C   0  0  0  0  0  0  0  0  0  0  0  0
   -1.4760   -2.2760    0.2120 C   0  0  0  0  0  0  0  0  0  0  0  0
   -2.0930   -0.4370   -1.2350 C   0  0  0  0  0  0  0  0  0  0  0  0
    0.9090   -1.4610    2.2210 C   0  0  0  0  0  0  0  0  0  0  0  0
    2.5410   -1.2730    0.4330 C   0  0  0  0  0  0  0  0  0  0  0  0
    1.1860    2.7410    2.9240 C   0  0  0  0  0  0  0  0  0  0  0  0
    1.0080    2.5210   -2.2430 C   0  0  0  0  0  0  0  0  0  0  0  0
    3.0560    3.4390   -1.0890 C   0  0  0  0  0  0  0  0  0  0  0  0
   -0.8170    2.1100    4.3930 C   0  0  0  0  0  0  0  0  0  0  0  0
   -2.6910   -2.9210   -0.0870 C   0  0  0  0  0  0  0  0  0  0  0  0
   -3.3090   -1.0780   -1.5370 C   0  0  0  0  0  0  0  0  0  0  0  0
    1.8500   -2.1450    3.0120 C   0  0  0  0  0  0  0  0  0  0  0  0
    3.4850   -1.9560    1.2230 C   0  0  0  0  0  0  0  0  0  0  0  0
   -3.6140   -2.3160   -0.9530 C   0  0  0  0  0  0  0  0  0  0  0  0
    3.1420   -2.3880    2.5150 C   0  0  0  0  0  0  0  0  0  0  0  0
   -0.8080    1.7410   -0.2030 H   0  0  0  0  0  0  0  0  0  0  0  0
    0.6350    3.4040    0.3650 H   0  0  0  0  0  0  0  0  0  0  0  0
   -1.4730    2.4090    1.8060 H   0  0  0  0  0  0  0  0  0  0  0  0
   -1.5060    0.6760    2.0400 H   0  0  0  0  0  0  0  0  0  0  0  0
    2.4970    1.4410    1.7640 H   0  0  0  0  0  0  0  0  0  0  0  0
    2.7790    3.1700    1.5860 H   0  0  0  0  0  0  0  0  0  0  0  0
    2.4180    1.3990   -1.0660 H   0  0  0  0  0  0  0  0  0  0  0  0
    0.5240    0.7790    3.4220 H   0  0  0  0  0  0  0  0  0  0  0  0
   -0.8200   -2.7860    0.8000 H   0  0  0  0  0  0  0  0  0  0  0  0
   -1.9010    0.4440   -1.7180 H   0  0  0  0  0  0  0  0  0  0  0  0
   -0.0310   -1.3240    2.5980 H   0  0  0  0  0  0  0  0  0  0  0  0
    2.8240   -0.9830   -0.5080 H   0  0  0  0  0  0  0  0  0  0  0  0
    1.8610    2.7410    3.7850 H   0  0  0  0  0  0  0  0  0  0  0  0
    0.7670    3.7470    2.8310 H   0  0  0  0  0  0  0  0  0  0  0  0
    1.5980    2.5120   -3.1620 H   0  0  0  0  0  0  0  0  0  0  0  0
    0.2980    1.6990   -2.3190 H   0  0  0  0  0  0  0  0  0  0  0  0
    0.4510    3.4600   -2.2000 H   0  0  0  0  0  0  0  0  0  0  0  0
    3.8690    3.2110   -0.3990 H   0  0  0  0  0  0  0  0  0  0  0  0
    3.4950    3.4590   -2.0890 H   0  0  0  0  0  0  0  0  0  0  0  0
    2.6660    4.4340   -0.8640 H   0  0  0  0  0  0  0  0  0  0  0  0
   -1.5810    1.3520    4.5750 H   0  0  0  0  0  0  0  0  0  0  0  0
   -0.1930    2.1850    5.2860 H   0  0  0  0  0  0  0  0  0  0  0  0
   -1.3100    3.0710    4.2320 H   0  0  0  0  0  0  0  0  0  0  0  0
   -2.8950   -3.8390    0.3140 H   0  0  0  0  0  0  0  0  0  0  0  0
   -3.9660   -0.6480   -2.1920 H   0  0  0  0  0  0  0  0  0  0  0  0
    1.5930   -2.4720    3.9460 H   0  0  0  0  0  0  0  0  0  0  0  0
    4.4210   -2.1420    0.8550 H   0  0  0  0  0  0  0  0  0  0  0  0
   -4.4940   -2.7870   -1.1760 H   0  0  0  0  0  0  0  0  0  0  0  0
    3.8260   -2.8860    3.0880 H   0  0  0  0  0  0  0  0  0  0  0  0
  1  3  1  0  0  0  0
  1  4  1  0  0  0  0
  1  2  1  0  0  0  0
  1 24  1  0  0  0  0
  2  6  1  0  0  0  0
  2  5  1  0  0  0  0
  3 25  1  0  0  0  0
  3  7  1  0  0  0  0
  3  8  1  0  0  0  0
  4 27  1  0  0  0  0
  4  9  1  0  0  0  0
  4 26  1  0  0  0  0
  5 10  2  0  0  0  0
  5 11  1  0  0  0  0
  6 12  2  0  0  0  0
  6 13  1  0  0  0  0
  7 28  1  0  0  0  0
  7 14  1  0  0  0  0
  7 29  1  0  0  0  0
  8 15  1  0  0  0  0
  8 16  1  0  0  0  0
  8 30  1  0  0  0  0
  9 31  1  0  0  0  0
  9 17  1  0  0  0  0
  9 14  1  0  0  0  0
 10 32  1  0  0  0  0
 10 18  1  0  0  0  0
 11 19  2  0  0  0  0
 11 33  1  0  0  0  0
 12 34  1  0  0  0  0
 12 20  1  0  0  0  0
 13 21  2  0  0  0  0
 13 35  1  0  0  0  0
 14 36  1  0  0  0  0
 14 37  1  0  0  0  0
 15 40  1  0  0  0  0
 15 38  1  0  0  0  0
 15 39  1  0  0  0  0
 16 43  1  0  0  0  0
 16 41  1  0  0  0  0
 16 42  1  0  0  0  0
 17 44  1  0  0  0  0
 17 45  1  0  0  0  0
 17 46  1  0  0  0  0
 18 47  1  0  0  0  0
 18 22  2  0  0  0  0
 19 22  1  0  0  0  0
 19 48  1  0  0  0  0
 20 49  1  0  0  0  0
 20 23  2  0  0  0  0
 21 23  1  0  0  0  0
 21 50  1  0  0  0  0
 22 51  1  0  0  0  0
 23 52  1  0  0  0  0
M  END
