decoy-342
 OpenBabel06062114513D

 37 36  0  0  0  0  0  0  0  0999 V2000
    1.3110    1.4460    0.2010 C   0  0  0  0  0  0  0  0  0  0  0  0
    0.5280    0.5020    1.0950 C   0  0  0  0  0  0  0  0  0  0  0  0
    2.6320    1.8560    0.8040 C   0  0  0  0  0  0  0  0  0  0  0  0
    1.4310    0.9980   -1.2350 C   0  0  0  0  0  0  0  0  0  0  0  0
   -1.0250    0.5600    0.8670 C   0  0  0  0  0  0  0  0  0  0  0  0
    1.0590   -0.9650    1.0550 C   0  0  0  0  0  0  0  0  0  0  0  0
    3.2370    3.0490    0.1870 C   0  0  0  0  0  0  0  0  0  0  0  0
    1.5210    2.1240   -2.1800 C   0  0  0  0  0  0  0  0  0  0  0  0
   -1.7630    1.6820    1.5570 C   0  0  0  0  0  0  0  0  0  0  0  0
    4.4560    2.9860   -0.3940 O   0  0  0  0  0  0  0  0  0  0  0  0
    2.5860    4.2320    0.1980 O   0  0  0  0  0  0  0  0  0  0  0  0
    2.5850    2.2560   -3.0030 O   0  0  0  0  0  0  0  0  0  0  0  0
    0.5190    3.0260   -2.2650 O   0  0  0  0  0  0  0  0  0  0  0  0
   -1.4490    3.0570    1.0210 C   0  0  0  0  0  0  0  0  0  0  0  0
   -3.2460    1.4210    1.6250 C   0  0  0  0  0  0  0  0  0  0  0  0
   -0.4090    3.7690    1.7850 C   0  0  0  0  0  0  0  0  0  0  0  0
   -3.9550    2.2040    2.6570 C   0  0  0  0  0  0  0  0  0  0  0  0
   -0.0440    5.0120    1.4020 O   0  0  0  0  0  0  0  0  0  0  0  0
    0.0520    3.3130    2.9710 O   0  0  0  0  0  0  0  0  0  0  0  0
   -5.2970    2.0920    2.7740 O   0  0  0  0  0  0  0  0  0  0  0  0
   -3.2950    2.9430    3.5770 O   0  0  0  0  0  0  0  0  0  0  0  0
    0.6570    0.8160    2.1350 H   0  0  0  0  0  0  0  0  0  0  0  0
    2.5060    2.1100    1.8590 H   0  0  0  0  0  0  0  0  0  0  0  0
    3.3440    1.0290    0.7550 H   0  0  0  0  0  0  0  0  0  0  0  0
    2.2980    0.3430   -1.3600 H   0  0  0  0  0  0  0  0  0  0  0  0
    0.5600    0.4240   -1.5500 H   0  0  0  0  0  0  0  0  0  0  0  0
   -1.2600    0.5730   -0.1990 H   0  0  0  0  0  0  0  0  0  0  0  0
   -1.4270   -0.3820    1.2510 H   0  0  0  0  0  0  0  0  0  0  0  0
    0.5930   -1.5610    1.8430 H   0  0  0  0  0  0  0  0  0  0  0  0
    0.8370   -1.4350    0.0960 H   0  0  0  0  0  0  0  0  0  0  0  0
    2.1370   -0.9930    1.2150 H   0  0  0  0  0  0  0  0  0  0  0  0
   -1.1470    3.0070   -0.0270 H   0  0  0  0  0  0  0  0  0  0  0  0
   -2.3250    3.7110    1.0460 H   0  0  0  0  0  0  0  0  0  0  0  0
   -3.7020    1.6210    0.6520 H   0  0  0  0  0  0  0  0  0  0  0  0
   -3.4480    0.3760    1.8720 H   0  0  0  0  0  0  0  0  0  0  0  0
    0.7590    2.3020    0.1730 H   0  0  0  0  0  0  0  0  0  0  0  0
   -1.4460    1.6630    2.5280 H   0  0  0  0  0  0  0  0  0  0  0  0
  1  3  1  0  0  0  0
  1  2  1  0  0  0  0
  1  4  1  0  0  0  0
  1 36  1  0  0  0  0
  2 22  1  0  0  0  0
  2  5  1  0  0  0  0
  2  6  1  0  0  0  0
  3 23  1  0  0  0  0
  3  7  1  0  0  0  0
  3 24  1  0  0  0  0
  4  8  1  0  0  0  0
  4 25  1  0  0  0  0
  4 26  1  0  0  0  0
  5 28  1  0  0  0  0
  5  9  1  0  0  0  0
  5 27  1  0  0  0  0
  6 31  1  0  0  0  0
  6 29  1  0  0  0  0
  6 30  1  0  0  0  0
  7 11  1  0  0  0  0
  7 10  2  0  0  0  0
  8 12  2  0  0  0  0
  8 13  1  0  0  0  0
  9 15  1  0  0  0  0
  9 37  1  0  0  0  0
  9 14  1  0  0  0  0
 14 33  1  0  0  0  0
 14 16  1  0  0  0  0
 14 32  1  0  0  0  0
 15 35  1  0  0  0  0
 15 17  1  0  0  0  0
 15 34  1  0  0  0  0
 16 19  1  0  0  0  0
 16 18  2  0  0  0  0
 17 20  2  0  0  0  0
 17 21  1  0  0  0  0
M  END
