decoy-817
 OpenBabel06062114513D

 32 31  0  0  0  0  0  0  0  0999 V2000
    0.0250    1.5490    0.0090 C   0  0  0  0  0  0  0  0  0  0  0  0
   -0.0440   -0.0300    0.0010 C   0  0  0  0  0  0  0  0  0  0  0  0
    1.4690    2.1930   -0.0020 C   0  0  0  0  0  0  0  0  0  0  0  0
   -0.6710    2.0220   -1.0810 F   0  0  0  0  0  0  0  0  0  0  0  0
   -0.6480    2.0090    1.1200 F   0  0  0  0  0  0  0  0  0  0  0  0
   -1.4880   -0.6740    0.0120 C   0  0  0  0  0  0  0  0  0  0  0  0
    0.6300   -0.4910   -1.1090 F   0  0  0  0  0  0  0  0  0  0  0  0
    0.6520   -0.5040    1.0920 F   0  0  0  0  0  0  0  0  0  0  0  0
    1.5360    3.7710    0.0070 C   0  0  0  0  0  0  0  0  0  0  0  0
    2.1670    1.7230    1.0890 F   0  0  0  0  0  0  0  0  0  0  0  0
    2.1440    1.7370   -1.1120 F   0  0  0  0  0  0  0  0  0  0  0  0
   -1.5550   -2.2520    0.0030 C   0  0  0  0  0  0  0  0  0  0  0  0
   -2.1640   -0.2170    1.1220 F   0  0  0  0  0  0  0  0  0  0  0  0
   -2.1860   -0.2050   -1.0800 F   0  0  0  0  0  0  0  0  0  0  0  0
    2.9790    4.4060   -0.0040 C   0  0  0  0  0  0  0  0  0  0  0  0
    0.8460    4.2530   -1.0840 F   0  0  0  0  0  0  0  0  0  0  0  0
    0.8690    4.2390    1.1180 F   0  0  0  0  0  0  0  0  0  0  0  0
   -2.9980   -2.8870    0.0140 C   0  0  0  0  0  0  0  0  0  0  0  0
   -0.8870   -2.7210   -1.1070 F   0  0  0  0  0  0  0  0  0  0  0  0
   -0.8660   -2.7340    1.0950 F   0  0  0  0  0  0  0  0  0  0  0  0
    3.0340    5.9690    0.0050 C   0  0  0  0  0  0  0  0  0  0  0  0
    3.6940    3.9640    1.0880 F   0  0  0  0  0  0  0  0  0  0  0  0
    3.6710    3.9780   -1.1170 F   0  0  0  0  0  0  0  0  0  0  0  0
   -3.0560   -4.4480    0.0060 C   0  0  0  0  0  0  0  0  0  0  0  0
   -3.6900   -2.4590    1.1260 F   0  0  0  0  0  0  0  0  0  0  0  0
   -3.7110   -2.4470   -1.0800 F   0  0  0  0  0  0  0  0  0  0  0  0
    4.3360    6.4140   -0.0060 F   0  0  0  0  0  0  0  0  0  0  0  0
    2.4200    6.5160   -1.0970 F   0  0  0  0  0  0  0  0  0  0  0  0
    2.4430    6.5020    1.1260 F   0  0  0  0  0  0  0  0  0  0  0  0
   -2.4620   -4.9810   -1.1130 F   0  0  0  0  0  0  0  0  0  0  0  0
   -2.4410   -4.9930    1.1080 F   0  0  0  0  0  0  0  0  0  0  0  0
   -5.0620   -5.1490    0.0220 I   0  0  0  0  0  0  0  0  0  0  0  0
  1  5  1  0  0  0  0
  1  2  1  0  0  0  0
  1  3  1  0  0  0  0
  1  4  1  0  0  0  0
  2  6  1  0  0  0  0
  2  8  1  0  0  0  0
  2  7  1  0  0  0  0
  3  9  1  0  0  0  0
  3 10  1  0  0  0  0
  3 11  1  0  0  0  0
  6 13  1  0  0  0  0
  6 12  1  0  0  0  0
  6 14  1  0  0  0  0
  9 17  1  0  0  0  0
  9 15  1  0  0  0  0
  9 16  1  0  0  0  0
 12 18  1  0  0  0  0
 12 20  1  0  0  0  0
 12 19  1  0  0  0  0
 15 21  1  0  0  0  0
 15 22  1  0  0  0  0
 15 23  1  0  0  0  0
 18 25  1  0  0  0  0
 18 24  1  0  0  0  0
 18 26  1  0  0  0  0
 21 29  1  0  0  0  0
 21 27  1  0  0  0  0
 21 28  1  0  0  0  0
 24 32  1  0  0  0  0
 24 31  1  0  0  0  0
 24 30  1  0  0  0  0
M  END
