decoy-811
 OpenBabel06062114513D

 64 68  0  0  0  0  0  0  0  0999 V2000
    2.7050    0.3460    0.7570 C   0  0  0  0  0  0  0  0  0  0  0  0
    3.7710   -0.7890    0.8530 C   0  0  0  0  0  0  0  0  0  0  0  0
    1.2630   -0.2030    0.5120 C   0  0  0  0  0  0  0  0  0  0  0  0
    2.5270    1.3600    1.9070 C   0  0  0  0  0  0  0  0  0  0  0  0
    3.7940   -1.6040   -0.5020 C   0  0  0  0  0  0  0  0  0  0  0  0
    5.1970   -0.2530    1.1900 C   0  0  0  0  0  0  0  0  0  0  0  0
    0.4690    1.1420    0.5180 C   0  0  0  0  0  0  0  0  0  0  0  0
    1.2750   -0.9590   -0.8580 C   0  0  0  0  0  0  0  0  0  0  0  0
    0.6960   -1.1560    1.6330 C   0  0  0  0  0  0  0  0  0  0  0  0
    1.1260    1.9760    1.6530 C   0  0  0  0  0  0  0  0  0  0  0  0
    4.8680   -2.7530   -0.3980 C   0  0  0  0  0  0  0  0  0  0  0  0
    2.3580   -2.0810   -0.9140 C   0  0  0  0  0  0  0  0  0  0  0  0
    6.2550   -1.3890    1.1800 C   0  0  0  0  0  0  0  0  0  0  0  0
   -0.9440    0.9820    0.7300 O   0  0  0  0  0  0  0  0  0  0  0  0
    6.1750   -2.1330   -0.0800 C   0  0  0  0  0  0  0  0  0  0  0  0
    4.9880   -3.7250   -1.6190 C   0  0  0  0  0  0  0  0  0  0  0  0
   -1.9760    1.3260   -0.0850 C   0  0  0  0  0  0  0  0  0  0  0  0
    7.1820   -2.0750   -0.9820 C   0  0  0  0  0  0  0  0  0  0  0  0
    5.8330   -3.1130   -2.7640 C   0  0  0  0  0  0  0  0  0  0  0  0
   -3.3470    1.0410    0.3850 C   0  0  0  0  0  0  0  0  0  0  0  0
   -1.7440    1.9020   -1.2890 O   0  0  0  0  0  0  0  0  0  0  0  0
    7.0780   -2.5610   -2.2520 C   0  0  0  0  0  0  0  0  0  0  0  0
   -4.4770    1.4400   -0.6040 C   0  0  0  0  0  0  0  0  0  0  0  0
    7.9650   -2.3070   -3.0570 O   0  0  0  0  0  0  0  0  0  0  0  0
   -5.8330    1.1120   -0.0840 C   0  0  0  0  0  0  0  0  0  0  0  0
   -6.3800    1.8440    0.9980 C   0  0  0  0  0  0  0  0  0  0  0  0
   -6.6080    0.0770   -0.6600 C   0  0  0  0  0  0  0  0  0  0  0  0
   -7.6630    1.5440    1.4940 C   0  0  0  0  0  0  0  0  0  0  0  0
   -7.8900   -0.2240   -0.1640 C   0  0  0  0  0  0  0  0  0  0  0  0
   -8.4170    0.5090    0.9140 C   0  0  0  0  0  0  0  0  0  0  0  0
    3.0050    0.9510   -0.1120 H   0  0  0  0  0  0  0  0  0  0  0  0
    3.4960   -1.4610    1.6690 H   0  0  0  0  0  0  0  0  0  0  0  0
    4.1220   -0.9230   -1.2970 H   0  0  0  0  0  0  0  0  0  0  0  0
    4.5810   -3.3880    0.4470 H   0  0  0  0  0  0  0  0  0  0  0  0
    2.5610    0.8520    2.8750 H   0  0  0  0  0  0  0  0  0  0  0  0
    3.3070    2.1260    1.8870 H   0  0  0  0  0  0  0  0  0  0  0  0
    5.4860    0.5120    0.4630 H   0  0  0  0  0  0  0  0  0  0  0  0
    5.1930    0.2110    2.1800 H   0  0  0  0  0  0  0  0  0  0  0  0
    0.6430    1.6660   -0.4280 H   0  0  0  0  0  0  0  0  0  0  0  0
    0.2910   -1.3940   -1.0540 H   0  0  0  0  0  0  0  0  0  0  0  0
    1.4770   -0.2520   -1.6680 H   0  0  0  0  0  0  0  0  0  0  0  0
    1.2930   -2.0580    1.7540 H   0  0  0  0  0  0  0  0  0  0  0  0
   -0.3180   -1.4730    1.3810 H   0  0  0  0  0  0  0  0  0  0  0  0
    0.6550   -0.6620    2.6040 H   0  0  0  0  0  0  0  0  0  0  0  0
    0.5280    1.9290    2.5680 H   0  0  0  0  0  0  0  0  0  0  0  0
    1.2110    3.0250    1.3530 H   0  0  0  0  0  0  0  0  0  0  0  0
    2.3770   -2.4470   -1.9420 H   0  0  0  0  0  0  0  0  0  0  0  0
    2.0570   -2.9170   -0.2790 H   0  0  0  0  0  0  0  0  0  0  0  0
    7.2420   -0.9470    1.3480 H   0  0  0  0  0  0  0  0  0  0  0  0
    6.0670   -2.0750    2.0110 H   0  0  0  0  0  0  0  0  0  0  0  0
    5.4920   -4.6370   -1.2830 H   0  0  0  0  0  0  0  0  0  0  0  0
    4.0130   -4.0330   -1.9960 H   0  0  0  0  0  0  0  0  0  0  0  0
    8.0290   -1.6160   -0.7300 H   0  0  0  0  0  0  0  0  0  0  0  0
    6.0440   -3.8940   -3.5000 H   0  0  0  0  0  0  0  0  0  0  0  0
    5.2660   -2.3200   -3.2600 H   0  0  0  0  0  0  0  0  0  0  0  0
   -3.4160   -0.0310    0.5840 H   0  0  0  0  0  0  0  0  0  0  0  0
   -3.4870    1.5720    1.3290 H   0  0  0  0  0  0  0  0  0  0  0  0
   -4.4290    2.5140   -0.8050 H   0  0  0  0  0  0  0  0  0  0  0  0
   -4.3010    0.9260   -1.5530 H   0  0  0  0  0  0  0  0  0  0  0  0
   -5.8490    2.6040    1.4280 H   0  0  0  0  0  0  0  0  0  0  0  0
   -6.2420   -0.4710   -1.4430 H   0  0  0  0  0  0  0  0  0  0  0  0
   -8.0470    2.0790    2.2760 H   0  0  0  0  0  0  0  0  0  0  0  0
   -8.4390   -0.9760   -0.5860 H   0  0  0  0  0  0  0  0  0  0  0  0
   -9.3490    0.2910    1.2740 H   0  0  0  0  0  0  0  0  0  0  0  0
  1  3  1  0  0  0  0
  1  2  1  0  0  0  0
  1  4  1  0  0  0  0
  1 31  1  0  0  0  0
  2  5  1  0  0  0  0
  2  6  1  0  0  0  0
  2 32  1  0  0  0  0
  3  7  1  0  0  0  0
  3  9  1  0  0  0  0
  3  8  1  0  0  0  0
  4 35  1  0  0  0  0
  4 10  1  0  0  0  0
  4 36  1  0  0  0  0
  5 11  1  0  0  0  0
  5 12  1  0  0  0  0
  5 33  1  0  0  0  0
  6 38  1  0  0  0  0
  6 13  1  0  0  0  0
  6 37  1  0  0  0  0
  7 39  1  0  0  0  0
  7 14  1  0  0  0  0
  7 10  1  0  0  0  0
  8 12  1  0  0  0  0
  8 40  1  0  0  0  0
  8 41  1  0  0  0  0
  9 42  1  0  0  0  0
  9 44  1  0  0  0  0
  9 43  1  0  0  0  0
 10 45  1  0  0  0  0
 10 46  1  0  0  0  0
 11 15  1  0  0  0  0
 11 34  1  0  0  0  0
 11 16  1  0  0  0  0
 12 48  1  0  0  0  0
 12 47  1  0  0  0  0
 13 49  1  0  0  0  0
 13 50  1  0  0  0  0
 13 15  1  0  0  0  0
 14 17  1  0  0  0  0
 15 18  2  0  0  0  0
 16 51  1  0  0  0  0
 16 19  1  0  0  0  0
 16 52  1  0  0  0  0
 17 20  1  0  0  0  0
 17 21  2  0  0  0  0
 18 53  1  0  0  0  0
 18 22  1  0  0  0  0
 19 22  1  0  0  0  0
 19 54  1  0  0  0  0
 19 55  1  0  0  0  0
 20 56  1  0  0  0  0
 20 57  1  0  0  0  0
 20 23  1  0  0  0  0
 22 24  2  0  0  0  0
 23 25  1  0  0  0  0
 23 58  1  0  0  0  0
 23 59  1  0  0  0  0
 25 26  2  0  0  0  0
 25 27  1  0  0  0  0
 26 60  1  0  0  0  0
 26 28  1  0  0  0  0
 27 29  2  0  0  0  0
 27 61  1  0  0  0  0
 28 62  1  0  0  0  0
 28 30  2  0  0  0  0
 29 30  1  0  0  0  0
 29 63  1  0  0  0  0
 30 64  1  0  0  0  0
M  END
