
  ACD/Labs06062116153D

 41 45  0  0  0  0  0  0  0  0  1 V2000
   21.0529   -9.5894   -0.2189 C   0  0  0  0  0  0  0  0  0  0  0  0
   20.5794  -10.9280   -0.2938 C   0  0  0  0  0  0  0  0  0  0  0  0
   22.3556   -9.3442   -0.5498 C   0  0  0  0  0  0  0  0  0  0  0  0
   20.0912   -8.6094    0.1568 C   0  0  0  0  0  0  0  0  0  0  0  0
   19.1890  -11.2048   -0.4191 C   0  0  0  0  0  0  0  0  0  0  0  0
   21.5181  -11.9942   -0.3281 C   0  0  0  0  0  0  0  0  0  0  0  0
   22.8003   -8.0799   -0.9592 C   0  0  0  0  0  0  0  0  0  0  0  0
   23.2478  -10.4030   -0.6018 C   0  0  0  0  0  0  0  0  0  0  0  0
   18.7043   -8.8734   -0.0685 C   0  0  0  0  0  0  0  0  0  0  0  0
   20.4270   -7.4289    0.8695 C   0  0  0  0  0  0  0  0  0  0  0  0
   18.3209  -10.1212   -0.5572 C   0  0  0  0  0  0  0  0  0  0  0  0
   18.7506  -12.5511   -0.4114 C   0  0  0  0  0  0  0  0  0  0  0  0
   22.8393  -11.6553   -0.4395 N   0  0  0  0  0  0  0  0  0  0  0  0
   21.0779  -13.3420   -0.3326 C   0  0  0  0  0  0  0  0  0  0  0  0
   23.7617   -7.3609   -0.2071 C   0  0  0  0  0  0  0  0  0  0  0  0
   22.3025   -7.5051   -2.1538 C   0  0  0  0  0  0  0  0  0  0  0  0
   24.4515  -10.2552   -0.7690 O   0  0  0  0  0  0  0  0  0  0  0  0
   17.7266   -7.9184    0.2984 C   0  0  0  0  0  0  0  0  0  0  0  0
   19.4508   -6.4840    1.2279 C   0  0  0  0  0  0  0  0  0  0  0  0
   17.4147  -10.1767   -1.3795 O   0  0  0  0  0  0  0  0  0  0  0  0
   19.6893  -13.5964   -0.3526 C   0  0  0  0  0  0  0  0  0  0  0  0
   16.9458  -13.0315   -0.4394 Br  0  0  0  0  0  0  0  0  0  0  0  0
   21.9928  -14.5126   -0.3283 C   0  0  0  0  0  0  0  0  0  0  0  0
   24.2001   -6.0932   -0.6312 C   0  0  0  0  0  0  0  0  0  0  0  0
   22.7418   -6.2367   -2.5760 C   0  0  0  0  0  0  0  0  0  0  0  0
   18.1017   -6.7200    0.9253 C   0  0  0  0  0  0  0  0  0  0  0  0
   23.6894   -5.5298   -1.8143 C   0  0  0  0  0  0  0  0  0  0  0  0
   21.3864   -7.2487    1.1633 H   0  0  0  0  0  0  0  0  0  0  0  0
   23.5044  -12.3578   -0.4753 H   0  0  0  0  0  0  0  0  0  0  0  0
   24.1394   -7.7514    0.6602 H   0  0  0  0  0  0  0  0  0  0  0  0
   21.6142   -8.0049   -2.7229 H   0  0  0  0  0  0  0  0  0  0  0  0
   16.7309   -8.0996    0.1411 H   0  0  0  0  0  0  0  0  0  0  0  0
   19.7204   -5.6322    1.7264 H   0  0  0  0  0  0  0  0  0  0  0  0
   19.3494  -14.5614   -0.3471 H   0  0  0  0  0  0  0  0  0  0  0  0
   23.0455  -14.2368   -0.2851 H   0  0  0  0  0  0  0  0  0  0  0  0
   21.7793  -15.1408    0.5387 H   0  0  0  0  0  0  0  0  0  0  0  0
   21.8371  -15.1014   -1.2343 H   0  0  0  0  0  0  0  0  0  0  0  0
   24.8902   -5.5792   -0.0777 H   0  0  0  0  0  0  0  0  0  0  0  0
   22.3729   -5.8292   -3.4377 H   0  0  0  0  0  0  0  0  0  0  0  0
   17.3898   -6.0374    1.1967 H   0  0  0  0  0  0  0  0  0  0  0  0
   24.0085   -4.6085   -2.1220 H   0  0  0  0  0  0  0  0  0  0  0  0
  1  2  1  0  0  0  0
  1  4  1  0  0  0  0
  1  3  2  0  0  0  0
  2  6  2  0  0  0  0
  2  5  1  0  0  0  0
  3  7  1  0  0  0  0
  3  8  1  0  0  0  0
  4 10  2  0  0  0  0
  4  9  1  0  0  0  0
  5 12  2  0  0  0  0
  5 11  1  0  0  0  0
  6 14  1  0  0  0  0
  6 13  1  0  0  0  0
  7 15  2  0  0  0  0
  7 16  1  0  0  0  0
  8 17  2  0  0  0  0
  8 13  1  0  0  0  0
  9 18  2  0  0  0  0
  9 11  1  0  0  0  0
 10 19  1  0  0  0  0
 10 28  1  0  0  0  0
 11 20  2  0  0  0  0
 12 21  1  0  0  0  0
 12 22  1  0  0  0  0
 13 29  1  0  0  0  0
 14 23  1  0  0  0  0
 14 21  2  0  0  0  0
 15 30  1  0  0  0  0
 15 24  1  0  0  0  0
 16 25  2  0  0  0  0
 16 31  1  0  0  0  0
 18 26  1  0  0  0  0
 18 32  1  0  0  0  0
 19 33  1  0  0  0  0
 19 26  2  0  0  0  0
 21 34  1  0  0  0  0
 23 35  1  0  0  0  0
 23 36  1  0  0  0  0
 23 37  1  0  0  0  0
 24 38  1  0  0  0  0
 24 27  2  0  0  0  0
 25 27  1  0  0  0  0
 25 39  1  0  0  0  0
 26 40  1  0  0  0  0
 27 41  1  0  0  0  0
M  END
