decoy-946
 OpenBabel06062114513D

 51 54  0  0  0  0  0  0  0  0999 V2000
   -2.7750    1.0340   -0.0950 C   0  0  0  0  0  0  0  0  0  0  0  0
   -2.1800    0.8090   -1.5340 C   0  0  0  0  0  0  0  0  0  0  0  0
   -4.2020    0.3770   -0.3010 C   0  0  0  0  0  0  0  0  0  0  0  0
   -1.7770    0.3220    0.8910 C   0  0  0  0  0  0  0  0  0  0  0  0
   -2.9370    2.5710    0.3000 C   0  0  0  0  0  0  0  0  0  0  0  0
   -0.7440    1.3890   -1.7450 C   0  0  0  0  0  0  0  0  0  0  0  0
   -3.3160    1.2350   -2.4880 C   0  0  0  0  0  0  0  0  0  0  0  0
   -4.6140    0.8260   -1.7440 C   0  0  0  0  0  0  0  0  0  0  0  0
   -4.2300   -1.0050   -0.2030 C   0  0  0  0  0  0  0  0  0  0  0  0
   -5.1950    0.8080    0.6300 O   0  0  0  0  0  0  0  0  0  0  0  0
   -0.3180    0.8580    0.7660 C   0  0  0  0  0  0  0  0  0  0  0  0
   -3.2270    2.9350    1.7820 C   0  0  0  0  0  0  0  0  0  0  0  0
    0.2500    0.7580   -0.6910 C   0  0  0  0  0  0  0  0  0  0  0  0
   -0.2010    1.1660   -3.1930 C   0  0  0  0  0  0  0  0  0  0  0  0
   -4.2550   -2.1950   -0.1160 C   0  0  0  0  0  0  0  0  0  0  0  0
    1.6830    1.3810   -0.8950 C   0  0  0  0  0  0  0  0  0  0  0  0
    1.2570    1.6830   -3.3450 C   0  0  0  0  0  0  0  0  0  0  0  0
    2.1020    1.1150   -2.2920 C   0  0  0  0  0  0  0  0  0  0  0  0
    2.7980    0.9540    0.1170 C   0  0  0  0  0  0  0  0  0  0  0  0
    3.0840    0.2340   -2.5930 C   0  0  0  0  0  0  0  0  0  0  0  0
    3.4050   -0.4250   -0.2410 C   0  0  0  0  0  0  0  0  0  0  0  0
    3.7540   -0.4890   -1.6520 C   0  0  0  0  0  0  0  0  0  0  0  0
    4.4970   -1.3900   -2.0170 O   0  0  0  0  0  0  0  0  0  0  0  0
   -2.0640   -0.2720   -1.6990 H   0  0  0  0  0  0  0  0  0  0  0  0
   -0.7730    2.4700   -1.6050 H   0  0  0  0  0  0  0  0  0  0  0  0
    0.3280   -0.3150   -0.9050 H   0  0  0  0  0  0  0  0  0  0  0  0
    1.5850    2.4650   -0.7700 H   0  0  0  0  0  0  0  0  0  0  0  0
   -2.1200    0.4210    1.9220 H   0  0  0  0  0  0  0  0  0  0  0  0
   -1.7410   -0.7510    0.6860 H   0  0  0  0  0  0  0  0  0  0  0  0
   -2.0370    3.1260    0.0490 H   0  0  0  0  0  0  0  0  0  0  0  0
   -3.7330    3.0230   -0.2940 H   0  0  0  0  0  0  0  0  0  0  0  0
   -3.2870    2.3140   -2.6600 H   0  0  0  0  0  0  0  0  0  0  0  0
   -3.2350    0.7260   -3.4520 H   0  0  0  0  0  0  0  0  0  0  0  0
   -5.1430    0.0450   -2.3030 H   0  0  0  0  0  0  0  0  0  0  0  0
   -5.2830    1.6900   -1.6980 H   0  0  0  0  0  0  0  0  0  0  0  0
   -4.8790    0.5010    1.5070 H   0  0  0  0  0  0  0  0  0  0  0  0
   -0.2640    1.8930    1.1110 H   0  0  0  0  0  0  0  0  0  0  0  0
    0.2970    0.2560    1.4380 H   0  0  0  0  0  0  0  0  0  0  0  0
   -4.0720    2.3800    2.1820 H   0  0  0  0  0  0  0  0  0  0  0  0
   -3.4560    4.0000    1.8570 H   0  0  0  0  0  0  0  0  0  0  0  0
   -2.3550    2.7390    2.4060 H   0  0  0  0  0  0  0  0  0  0  0  0
   -0.2300    0.1000   -3.4390 H   0  0  0  0  0  0  0  0  0  0  0  0
   -0.8330    1.6940   -3.9120 H   0  0  0  0  0  0  0  0  0  0  0  0
   -4.2730   -3.1170   -0.0580 H   0  0  0  0  0  0  0  0  0  0  0  0
    1.6100    1.4340   -4.3510 H   0  0  0  0  0  0  0  0  0  0  0  0
    1.2700    2.7740   -3.2640 H   0  0  0  0  0  0  0  0  0  0  0  0
    3.6030    1.6960    0.0710 H   0  0  0  0  0  0  0  0  0  0  0  0
    2.4400    0.9520    1.1460 H   0  0  0  0  0  0  0  0  0  0  0  0
    3.3030    0.0650   -3.5500 H   0  0  0  0  0  0  0  0  0  0  0  0
    4.2970   -0.5850    0.3720 H   0  0  0  0  0  0  0  0  0  0  0  0
    2.6870   -1.2160   -0.0130 H   0  0  0  0  0  0  0  0  0  0  0  0
  1  2  1  0  0  0  0
  1  5  1  0  0  0  0
  1  4  1  0  0  0  0
  1  3  1  0  0  0  0
  2  6  1  0  0  0  0
  2  7  1  0  0  0  0
  2 24  1  0  0  0  0
  3  9  1  0  0  0  0
  3 10  1  0  0  0  0
  3  8  1  0  0  0  0
  4 28  1  0  0  0  0
  4 11  1  0  0  0  0
  4 29  1  0  0  0  0
  5 12  1  0  0  0  0
  5 30  1  0  0  0  0
  5 31  1  0  0  0  0
  6 25  1  0  0  0  0
  6 13  1  0  0  0  0
  6 14  1  0  0  0  0
  7  8  1  0  0  0  0
  7 32  1  0  0  0  0
  7 33  1  0  0  0  0
  8 35  1  0  0  0  0
  8 34  1  0  0  0  0
  9 15  3  0  0  0  0
 10 36  1  0  0  0  0
 11 37  1  0  0  0  0
 11 38  1  0  0  0  0
 11 13  1  0  0  0  0
 12 40  1  0  0  0  0
 12 39  1  0  0  0  0
 12 41  1  0  0  0  0
 13 16  1  0  0  0  0
 13 26  1  0  0  0  0
 14 17  1  0  0  0  0
 14 42  1  0  0  0  0
 14 43  1  0  0  0  0
 15 44  1  0  0  0  0
 16 27  1  0  0  0  0
 16 19  1  0  0  0  0
 16 18  1  0  0  0  0
 17 46  1  0  0  0  0
 17 18  1  0  0  0  0
 17 45  1  0  0  0  0
 18 20  2  0  0  0  0
 19 48  1  0  0  0  0
 19 21  1  0  0  0  0
 19 47  1  0  0  0  0
 20 22  1  0  0  0  0
 20 49  1  0  0  0  0
 21 51  1  0  0  0  0
 21 50  1  0  0  0  0
 21 22  1  0  0  0  0
 22 23  2  0  0  0  0
M  END
