decoy-73
 OpenBabel06062114503D

 39 41  0  0  0  0  0  0  0  0999 V2000
   -0.0570    1.3640    0.1010 C   0  0  0  0  0  0  0  0  0  0  0  0
    0.1850   -0.0130    0.0780 C   0  0  0  0  0  0  0  0  0  0  0  0
    1.1760    1.9970   -0.0720 C   0  0  0  0  0  0  0  0  0  0  0  0
   -1.3660    1.8530    0.2730 C   0  0  0  0  0  0  0  0  0  0  0  0
    1.4980   -0.2170   -0.0980 N   0  0  0  0  0  0  0  0  0  0  0  0
   -0.8590   -0.9410    0.2300 C   0  0  0  0  0  0  0  0  0  0  0  0
    2.1170    0.9710   -0.1910 C   0  0  0  0  0  0  0  0  0  0  0  0
    1.4710    3.4470   -0.1120 C   0  0  0  0  0  0  0  0  0  0  0  0
   -2.4310    0.9340    0.4120 C   0  0  0  0  0  0  0  0  0  0  0  0
   -2.1710   -0.4570    0.4040 C   0  0  0  0  0  0  0  0  0  0  0  0
    1.9610    3.9080   -1.5050 C   0  0  0  0  0  0  0  0  0  0  0  0
   -3.7060    1.3890    0.6090 O   0  0  0  0  0  0  0  0  0  0  0  0
    2.2230    5.3510   -1.5150 C   0  0  0  0  0  0  0  0  0  0  0  0
   -4.4420    1.5830   -0.6150 C   0  0  0  0  0  0  0  0  0  0  0  0
   -5.8170    2.0240   -0.2770 C   0  0  0  0  0  0  0  0  0  0  0  0
   -6.3030    3.2940   -0.6710 C   0  0  0  0  0  0  0  0  0  0  0  0
   -6.6720    1.1650    0.4520 C   0  0  0  0  0  0  0  0  0  0  0  0
   -7.6120    3.6940   -0.3400 C   0  0  0  0  0  0  0  0  0  0  0  0
   -7.9810    1.5660    0.7820 C   0  0  0  0  0  0  0  0  0  0  0  0
   -8.4510    2.8300    0.3860 C   0  0  0  0  0  0  0  0  0  0  0  0
   -1.5500    2.8580    0.2940 H   0  0  0  0  0  0  0  0  0  0  0  0
    1.9320   -1.0840   -0.1480 H   0  0  0  0  0  0  0  0  0  0  0  0
   -0.6680   -1.9450    0.2180 H   0  0  0  0  0  0  0  0  0  0  0  0
    3.1230    1.0960   -0.3220 H   0  0  0  0  0  0  0  0  0  0  0  0
    0.5790    4.0180    0.1510 H   0  0  0  0  0  0  0  0  0  0  0  0
    2.2370    3.6670    0.6360 H   0  0  0  0  0  0  0  0  0  0  0  0
   -2.9410   -1.1200    0.5230 H   0  0  0  0  0  0  0  0  0  0  0  0
    2.8840    3.3900   -1.7750 H   0  0  0  0  0  0  0  0  0  0  0  0
    1.2020    3.6900   -2.2600 H   0  0  0  0  0  0  0  0  0  0  0  0
    2.5450    5.6340   -2.4430 H   0  0  0  0  0  0  0  0  0  0  0  0
    1.3660    5.8580   -1.2850 H   0  0  0  0  0  0  0  0  0  0  0  0
   -3.9370    2.3270   -1.2400 H   0  0  0  0  0  0  0  0  0  0  0  0
   -4.5090    0.6500   -1.1840 H   0  0  0  0  0  0  0  0  0  0  0  0
   -5.7090    3.9370   -1.1980 H   0  0  0  0  0  0  0  0  0  0  0  0
   -6.3470    0.2410    0.7480 H   0  0  0  0  0  0  0  0  0  0  0  0
   -7.9530    4.6140   -0.6290 H   0  0  0  0  0  0  0  0  0  0  0  0
   -8.5900    0.9370    1.3100 H   0  0  0  0  0  0  0  0  0  0  0  0
   -9.4010    3.1210    0.6250 H   0  0  0  0  0  0  0  0  0  0  0  0
    2.9450    5.5740   -0.8250 H   0  0  0  0  0  0  0  0  0  0  0  0
  1  4  2  0  0  0  0
  1  2  1  0  0  0  0
  1  3  1  0  0  0  0
  2  6  2  0  0  0  0
  2  5  1  0  0  0  0
  3  7  2  0  0  0  0
  3  8  1  0  0  0  0
  4 21  1  0  0  0  0
  4  9  1  0  0  0  0
  5  7  1  0  0  0  0
  5 22  1  0  0  0  0
  6 10  1  0  0  0  0
  6 23  1  0  0  0  0
  7 24  1  0  0  0  0
  8 25  1  0  0  0  0
  8 26  1  0  0  0  0
  8 11  1  0  0  0  0
  9 12  1  0  0  0  0
  9 10  2  0  0  0  0
 10 27  1  0  0  0  0
 11 13  1  0  0  0  0
 11 28  1  0  0  0  0
 11 29  1  0  0  0  0
 12 14  1  0  0  0  0
 13 31  1  0  0  0  0
 13 39  1  0  0  0  0
 13 30  1  0  0  0  0
 14 15  1  0  0  0  0
 14 32  1  0  0  0  0
 14 33  1  0  0  0  0
 15 17  2  0  0  0  0
 15 16  1  0  0  0  0
 16 18  2  0  0  0  0
 16 34  1  0  0  0  0
 17 35  1  0  0  0  0
 17 19  1  0  0  0  0
 18 20  1  0  0  0  0
 18 36  1  0  0  0  0
 19 37  1  0  0  0  0
 19 20  2  0  0  0  0
 20 38  1  0  0  0  0
M  END
