decoy-1059
 OpenBabel06062114513D

101106  0  0  0  0  0  0  0  0999 V2000
   -6.0380    2.8640   -2.2790 C   0  0  0  0  0  0  0  0  0  0  0  0
   -6.9660    1.6100   -2.3910 C   0  0  0  0  0  0  0  0  0  0  0  0
   -4.8330    2.6560   -1.3130 C   0  0  0  0  0  0  0  0  0  0  0  0
   -5.3780    3.4760   -3.5300 C   0  0  0  0  0  0  0  0  0  0  0  0
   -7.5540    1.2660   -0.9610 C   0  0  0  0  0  0  0  0  0  0  0  0
   -8.1000    1.8190   -3.4380 C   0  0  0  0  0  0  0  0  0  0  0  0
   -4.1000    4.0340   -1.4740 C   0  0  0  0  0  0  0  0  0  0  0  0
   -5.4300    2.3850    0.1100 C   0  0  0  0  0  0  0  0  0  0  0  0
   -3.8580    1.4750   -1.6920 C   0  0  0  0  0  0  0  0  0  0  0  0
   -4.3590    4.5210   -2.9590 C   0  0  0  0  0  0  0  0  0  0  0  0
   -8.5890    0.0480   -0.9690 C   0  0  0  0  0  0  0  0  0  0  0  0
   -6.4220    1.1810    0.1270 C   0  0  0  0  0  0  0  0  0  0  0  0
   -9.1150    0.6490   -3.4570 C   0  0  0  0  0  0  0  0  0  0  0  0
   -2.7300    3.9470   -1.0470 O   0  0  0  0  0  0  0  0  0  0  0  0
   -3.2150    4.9730   -3.8950 *   0  0  0  0  0  0  0  0  0  0  0  0
   -9.6980    0.3980   -2.0350 C   0  0  0  0  0  0  0  0  0  0  0  0
   -9.3210   -0.0780    0.4300 C   0  0  0  0  0  0  0  0  0  0  0  0
   -7.8290   -1.2900   -1.2970 C   0  0  0  0  0  0  0  0  0  0  0  0
   -2.1280    4.4930    0.0430 C   0  0  0  0  0  0  0  0  0  0  0  0
   -3.8130    5.4290   -5.2260 C   0  0  0  0  0  0  0  0  0  0  0  0
   -2.4920    6.1670   -3.2750 C   0  0  0  0  0  0  0  0  0  0  0  0
   -2.2330    3.8490   -4.1520 C   0  0  0  0  0  0  0  0  0  0  0  0
  -10.8690   -0.6240   -2.0520 C   0  0  0  0  0  0  0  0  0  0  0  0
  -10.6860   -0.8760    0.6050 C   0  0  0  0  0  0  0  0  0  0  0  0
   -0.6970    4.2440    0.2500 C   0  0  0  0  0  0  0  0  0  0  0  0
   -2.8160    5.2450    0.9350 O   0  0  0  0  0  0  0  0  0  0  0  0
   -2.8620    6.1730   -6.2050 C   0  0  0  0  0  0  0  0  0  0  0  0
   -1.5010    6.9390   -4.1920 C   0  0  0  0  0  0  0  0  0  0  0  0
  -11.5940   -0.6960   -0.6810 C   0  0  0  0  0  0  0  0  0  0  0  0
  -10.7330   -2.2680    1.2990 *   0  0  0  0  0  0  0  0  0  0  0  0
   -2.1780    7.3720   -5.5110 C   0  0  0  0  0  0  0  0  0  0  0  0
  -12.3580    0.5210   -0.5510 O   0  0  0  0  0  0  0  0  0  0  0  0
  -12.1920   -2.6350    1.6790 C   0  0  0  0  0  0  0  0  0  0  0  0
  -10.1140   -3.3410    0.4200 C   0  0  0  0  0  0  0  0  0  0  0  0
   -9.9360   -2.2380    2.5990 C   0  0  0  0  0  0  0  0  0  0  0  0
  -13.7060    0.6830   -0.4830 C   0  0  0  0  0  0  0  0  0  0  0  0
  -12.7770   -3.9270    1.0450 C   0  0  0  0  0  0  0  0  0  0  0  0
  -10.3550   -4.8160    0.8590 C   0  0  0  0  0  0  0  0  0  0  0  0
  -14.2420    2.0420   -0.3500 C   0  0  0  0  0  0  0  0  0  0  0  0
  -14.5520   -0.3730   -0.5340 O   0  0  0  0  0  0  0  0  0  0  0  0
  -11.8210   -5.1180    1.2810 C   0  0  0  0  0  0  0  0  0  0  0  0
   -6.6800    3.6630   -1.8770 H   0  0  0  0  0  0  0  0  0  0  0  0
   -6.3600    0.7840   -2.7590 H   0  0  0  0  0  0  0  0  0  0  0  0
   -8.1340    2.1520   -0.6730 H   0  0  0  0  0  0  0  0  0  0  0  0
  -10.1540    1.3510   -1.7400 H   0  0  0  0  0  0  0  0  0  0  0  0
   -4.8990    2.6930   -4.1170 H   0  0  0  0  0  0  0  0  0  0  0  0
   -6.1290    3.9590   -4.1630 H   0  0  0  0  0  0  0  0  0  0  0  0
   -8.6350    2.7480   -3.2200 H   0  0  0  0  0  0  0  0  0  0  0  0
   -7.6660    1.9130   -4.4370 H   0  0  0  0  0  0  0  0  0  0  0  0
   -4.5990    4.7510   -0.8100 H   0  0  0  0  0  0  0  0  0  0  0  0
   -4.6230    2.2000    0.8240 H   0  0  0  0  0  0  0  0  0  0  0  0
   -5.9680    3.2700    0.4630 H   0  0  0  0  0  0  0  0  0  0  0  0
   -4.3580    0.5100   -1.7280 H   0  0  0  0  0  0  0  0  0  0  0  0
   -3.0580    1.3920   -0.9530 H   0  0  0  0  0  0  0  0  0  0  0  0
   -3.3910    1.6290   -2.6620 H   0  0  0  0  0  0  0  0  0  0  0  0
   -4.9840    5.4160   -2.8310 H   0  0  0  0  0  0  0  0  0  0  0  0
   -6.8700    1.1530    1.1230 H   0  0  0  0  0  0  0  0  0  0  0  0
   -5.8570    0.2570    0.0090 H   0  0  0  0  0  0  0  0  0  0  0  0
   -9.9230    0.9100   -4.1470 H   0  0  0  0  0  0  0  0  0  0  0  0
   -8.6360   -0.2550   -3.8400 H   0  0  0  0  0  0  0  0  0  0  0  0
   -8.5970   -0.4330    1.1550 H   0  0  0  0  0  0  0  0  0  0  0  0
   -9.5390    0.9490    0.7430 H   0  0  0  0  0  0  0  0  0  0  0  0
   -7.1590   -1.1940   -2.1460 H   0  0  0  0  0  0  0  0  0  0  0  0
   -8.5090   -2.0950   -1.5480 H   0  0  0  0  0  0  0  0  0  0  0  0
   -7.2300   -1.6180   -0.4470 H   0  0  0  0  0  0  0  0  0  0  0  0
   -4.2250    4.5770   -5.7740 H   0  0  0  0  0  0  0  0  0  0  0  0
   -4.6520    6.1100   -5.0420 H   0  0  0  0  0  0  0  0  0  0  0  0
   -3.2220    6.9050   -2.9250 H   0  0  0  0  0  0  0  0  0  0  0  0
   -1.9210    5.8640   -2.3990 H   0  0  0  0  0  0  0  0  0  0  0  0
   -1.7700    3.4860   -3.2380 H   0  0  0  0  0  0  0  0  0  0  0  0
   -1.4140    4.1550   -4.8020 H   0  0  0  0  0  0  0  0  0  0  0  0
   -2.7060    2.9980   -4.6420 H   0  0  0  0  0  0  0  0  0  0  0  0
  -11.6010   -0.3180   -2.8070 H   0  0  0  0  0  0  0  0  0  0  0  0
  -10.5230   -1.6110   -2.3520 H   0  0  0  0  0  0  0  0  0  0  0  0
  -11.1980   -0.2610    1.3590 H   0  0  0  0  0  0  0  0  0  0  0  0
   -0.5220    3.1710    0.3390 H   0  0  0  0  0  0  0  0  0  0  0  0
   -0.3440    4.7360    1.1580 H   0  0  0  0  0  0  0  0  0  0  0  0
   -0.1330    4.6290   -0.6010 H   0  0  0  0  0  0  0  0  0  0  0  0
   -2.1030    5.4890   -6.5910 H   0  0  0  0  0  0  0  0  0  0  0  0
   -3.4360    6.5380   -7.0610 H   0  0  0  0  0  0  0  0  0  0  0  0
   -1.1410    7.8290   -3.6680 H   0  0  0  0  0  0  0  0  0  0  0  0
   -0.6290    6.3190   -4.4130 H   0  0  0  0  0  0  0  0  0  0  0  0
  -12.2860   -1.5340   -0.7660 H   0  0  0  0  0  0  0  0  0  0  0  0
   -1.4300    7.8050   -6.1810 H   0  0  0  0  0  0  0  0  0  0  0  0
   -2.9250    8.1420   -5.2980 H   0  0  0  0  0  0  0  0  0  0  0  0
  -12.3220   -2.7630    2.7600 H   0  0  0  0  0  0  0  0  0  0  0  0
  -12.8970   -1.8340    1.4420 H   0  0  0  0  0  0  0  0  0  0  0  0
  -10.5080   -3.2600   -0.5950 H   0  0  0  0  0  0  0  0  0  0  0  0
   -9.0330   -3.2100    0.3500 H   0  0  0  0  0  0  0  0  0  0  0  0
   -8.8590   -2.1730    2.4460 H   0  0  0  0  0  0  0  0  0  0  0  0
  -10.0900   -3.1440    3.1920 H   0  0  0  0  0  0  0  0  0  0  0  0
  -10.2330   -1.3930    3.2260 H   0  0  0  0  0  0  0  0  0  0  0  0
  -13.7550   -4.1500    1.4830 H   0  0  0  0  0  0  0  0  0  0  0  0
  -12.9210   -3.7840   -0.0290 H   0  0  0  0  0  0  0  0  0  0  0  0
  -10.0750   -5.4740    0.0300 H   0  0  0  0  0  0  0  0  0  0  0  0
   -9.6860   -5.0570    1.6890 H   0  0  0  0  0  0  0  0  0  0  0  0
  -13.8590    2.4980    0.5640 H   0  0  0  0  0  0  0  0  0  0  0  0
  -15.3330    2.0270   -0.3060 H   0  0  0  0  0  0  0  0  0  0  0  0
  -13.9320    2.6420   -1.2060 H   0  0  0  0  0  0  0  0  0  0  0  0
  -11.8430   -5.3740    2.3450 H   0  0  0  0  0  0  0  0  0  0  0  0
  -12.1940   -5.9860    0.7310 H   0  0  0  0  0  0  0  0  0  0  0  0
  1  2  1  0  0  0  0
  1 42  1  0  0  0  0
  1  3  1  0  0  0  0
  1  4  1  0  0  0  0
  2  5  1  0  0  0  0
  2  6  1  0  0  0  0
  2 43  1  0  0  0  0
  3  8  1  0  0  0  0
  3  7  1  0  0  0  0
  3  9  1  0  0  0  0
  4 10  1  0  0  0  0
  4 46  1  0  0  0  0
  4 47  1  0  0  0  0
  5 11  1  0  0  0  0
  5 44  1  0  0  0  0
  5 12  1  0  0  0  0
  6 48  1  0  0  0  0
  6 13  1  0  0  0  0
  6 49  1  0  0  0  0
  7 10  1  0  0  0  0
  7 14  1  0  0  0  0
  7 50  1  0  0  0  0
  8 12  1  0  0  0  0
  8 52  1  0  0  0  0
  8 51  1  0  0  0  0
  9 54  1  0  0  0  0
  9 53  1  0  0  0  0
  9 55  1  0  0  0  0
 10 56  1  0  0  0  0
 10 15  1  0  0  0  0
 11 16  1  0  0  0  0
 11 17  1  0  0  0  0
 11 18  1  0  0  0  0
 12 57  1  0  0  0  0
 12 58  1  0  0  0  0
 13 16  1  0  0  0  0
 13 59  1  0  0  0  0
 13 60  1  0  0  0  0
 14 19  1  0  0  0  0
 15 21  1  0  0  0  0
 15 20  1  0  0  0  0
 15 22  1  0  0  0  0
 16 45  1  0  0  0  0
 16 23  1  0  0  0  0
 17 24  1  0  0  0  0
 17 62  1  0  0  0  0
 17 61  1  0  0  0  0
 18 65  1  0  0  0  0
 18 63  1  0  0  0  0
 18 64  1  0  0  0  0
 19 25  1  0  0  0  0
 19 26  2  0  0  0  0
 20 67  1  0  0  0  0
 20 27  1  0  0  0  0
 20 66  1  0  0  0  0
 21 68  1  0  0  0  0
 21 69  1  0  0  0  0
 21 28  1  0  0  0  0
 22 70  1  0  0  0  0
 22 71  1  0  0  0  0
 22 72  1  0  0  0  0
 23 29  1  0  0  0  0
 23 73  1  0  0  0  0
 23 74  1  0  0  0  0
 24 29  1  0  0  0  0
 24 30  1  0  0  0  0
 24 75  1  0  0  0  0
 25 76  1  0  0  0  0
 25 77  1  0  0  0  0
 25 78  1  0  0  0  0
 27 31  1  0  0  0  0
 27 79  1  0  0  0  0
 27 80  1  0  0  0  0
 28 81  1  0  0  0  0
 28 31  1  0  0  0  0
 28 82  1  0  0  0  0
 29 83  1  0  0  0  0
 29 32  1  0  0  0  0
 30 33  1  0  0  0  0
 30 35  1  0  0  0  0
 30 34  1  0  0  0  0
 31 85  1  0  0  0  0
 31 84  1  0  0  0  0
 32 36  1  0  0  0  0
 33 86  1  0  0  0  0
 33 37  1  0  0  0  0
 33 87  1  0  0  0  0
 34 38  1  0  0  0  0
 34 88  1  0  0  0  0
 34 89  1  0  0  0  0
 35 91  1  0  0  0  0
 35 92  1  0  0  0  0
 35 90  1  0  0  0  0
 36 39  1  0  0  0  0
 36 40  2  0  0  0  0
 37 41  1  0  0  0  0
 37 93  1  0  0  0  0
 37 94  1  0  0  0  0
 38 41  1  0  0  0  0
 38 96  1  0  0  0  0
 38 95  1  0  0  0  0
 39 98  1  0  0  0  0
 39 97  1  0  0  0  0
 39 99  1  0  0  0  0
 41100  1  0  0  0  0
 41101  1  0  0  0  0
M  END
