decoy-111
 OpenBabel06062114503D

 42 43  0  0  0  0  0  0  0  0999 V2000
    0.1270    1.5870   -0.2550 C   0  0  0  0  0  0  0  0  0  0  0  0
    0.3120    0.2000   -0.4770 C   0  0  0  0  0  0  0  0  0  0  0  0
    1.2680    2.4250   -0.2220 C   0  0  0  0  0  0  0  0  0  0  0  0
   -1.1620    2.0330   -0.1320 N   0  0  0  0  0  0  0  0  0  0  0  0
    1.6080   -0.3270   -0.6530 C   0  0  0  0  0  0  0  0  0  0  0  0
   -0.7600   -0.6500   -0.5590 O   0  0  0  0  0  0  0  0  0  0  0  0
    2.5650    1.9000   -0.4020 C   0  0  0  0  0  0  0  0  0  0  0  0
   -1.6430    3.1000    0.4940 C   0  0  0  0  0  0  0  0  0  0  0  0
    2.7360    0.5130   -0.6000 C   0  0  0  0  0  0  0  0  0  0  0  0
   -1.1300   -1.2330    0.7060 C   0  0  0  0  0  0  0  0  0  0  0  0
    3.6460    2.7390   -0.3370 O   0  0  0  0  0  0  0  0  0  0  0  0
   -3.0100    3.3080    0.5030 C   0  0  0  0  0  0  0  0  0  0  0  0
   -0.9420    3.8720    1.1350 O   0  0  0  0  0  0  0  0  0  0  0  0
    3.9640   -0.0160   -0.7480 N   0  0  0  0  0  0  0  0  0  0  0  0
   -2.3800   -2.1100    0.5080 C   0  0  0  0  0  0  0  0  0  0  0  0
    3.9870    3.3360   -1.6030 C   0  0  0  0  0  0  0  0  0  0  0  0
   -3.5510    4.5280    0.0340 C   0  0  0  0  0  0  0  0  0  0  0  0
   -3.8910    2.3090    0.9830 C   0  0  0  0  0  0  0  0  0  0  0  0
    5.2180    4.2410   -1.4150 C   0  0  0  0  0  0  0  0  0  0  0  0
   -4.9420    4.7430    0.0410 C   0  0  0  0  0  0  0  0  0  0  0  0
   -5.2820    2.5260    0.9890 C   0  0  0  0  0  0  0  0  0  0  0  0
   -5.8070    3.7420    0.5180 C   0  0  0  0  0  0  0  0  0  0  0  0
    1.1670    3.4330   -0.1020 H   0  0  0  0  0  0  0  0  0  0  0  0
   -1.8350    1.4440   -0.5090 H   0  0  0  0  0  0  0  0  0  0  0  0
    1.7250   -1.3310   -0.8140 H   0  0  0  0  0  0  0  0  0  0  0  0
   -0.3190   -1.8580    1.0930 H   0  0  0  0  0  0  0  0  0  0  0  0
   -1.3620   -0.4580    1.4430 H   0  0  0  0  0  0  0  0  0  0  0  0
    4.0690   -0.9700   -0.8860 H   0  0  0  0  0  0  0  0  0  0  0  0
    4.7480    0.5550   -0.7150 H   0  0  0  0  0  0  0  0  0  0  0  0
   -2.6720   -2.5620    1.4570 H   0  0  0  0  0  0  0  0  0  0  0  0
   -3.2080   -1.5030    0.1370 H   0  0  0  0  0  0  0  0  0  0  0  0
   -2.1710   -2.9040   -0.2110 H   0  0  0  0  0  0  0  0  0  0  0  0
    4.2280    2.5670   -2.3430 H   0  0  0  0  0  0  0  0  0  0  0  0
    3.1600    3.9450   -1.9800 H   0  0  0  0  0  0  0  0  0  0  0  0
   -2.9380    5.2680   -0.3210 H   0  0  0  0  0  0  0  0  0  0  0  0
   -3.5290    1.4180    1.3340 H   0  0  0  0  0  0  0  0  0  0  0  0
    5.4900    4.7020   -2.3670 H   0  0  0  0  0  0  0  0  0  0  0  0
    4.9980    5.0290   -0.6920 H   0  0  0  0  0  0  0  0  0  0  0  0
    6.0640    3.6540   -1.0540 H   0  0  0  0  0  0  0  0  0  0  0  0
   -5.3240    5.6270   -0.3010 H   0  0  0  0  0  0  0  0  0  0  0  0
   -5.9110    1.7990    1.3370 H   0  0  0  0  0  0  0  0  0  0  0  0
   -6.8180    3.8990    0.5230 H   0  0  0  0  0  0  0  0  0  0  0  0
  1  3  2  0  0  0  0
  1  4  1  0  0  0  0
  1  2  1  0  0  0  0
  2  5  2  0  0  0  0
  2  6  1  0  0  0  0
  3 23  1  0  0  0  0
  3  7  1  0  0  0  0
  4  8  1  0  0  0  0
  4 24  1  0  0  0  0
  5  9  1  0  0  0  0
  5 25  1  0  0  0  0
  6 10  1  0  0  0  0
  7 11  1  0  0  0  0
  7  9  2  0  0  0  0
  8 12  1  0  0  0  0
  8 13  2  0  0  0  0
  9 14  1  0  0  0  0
 10 26  1  0  0  0  0
 10 27  1  0  0  0  0
 10 15  1  0  0  0  0
 11 16  1  0  0  0  0
 12 18  2  0  0  0  0
 12 17  1  0  0  0  0
 14 29  1  0  0  0  0
 14 28  1  0  0  0  0
 15 30  1  0  0  0  0
 15 31  1  0  0  0  0
 15 32  1  0  0  0  0
 16 19  1  0  0  0  0
 16 33  1  0  0  0  0
 16 34  1  0  0  0  0
 17 20  2  0  0  0  0
 17 35  1  0  0  0  0
 18 21  1  0  0  0  0
 18 36  1  0  0  0  0
 19 39  1  0  0  0  0
 19 38  1  0  0  0  0
 19 37  1  0  0  0  0
 20 22  1  0  0  0  0
 20 40  1  0  0  0  0
 21 41  1  0  0  0  0
 21 22  2  0  0  0  0
 22 42  1  0  0  0  0
M  END
