
  ACD/Labs06062116203D

 39 41  0  0  0  0  0  0  0  0  1 V2000
   19.4290   -6.7081   -2.2204 C   0  0  0  0  0  0  0  0  0  0  0  0
   19.6322   -8.0804   -2.1897 C   0  0  0  0  0  0  0  0  0  0  0  0
   20.4870   -5.8488   -2.0130 N   0  0  0  0  0  0  0  0  0  0  0  0
   18.1701   -6.1923   -2.4564 C   0  0  0  0  0  0  0  0  0  0  0  0
   20.9022   -8.5796   -1.9461 C   0  0  0  0  0  0  0  0  0  0  0  0
   18.5646   -8.9366   -2.4011 C   0  0  0  0  0  0  0  0  0  0  0  0
   21.7507   -6.3461   -1.7714 C   0  0  0  0  0  0  0  0  0  0  0  0
   17.0999   -7.0430   -2.6665 C   0  0  0  0  0  0  0  0  0  0  0  0
   21.9640   -7.7170   -1.7351 C   0  0  0  0  0  0  0  0  0  0  0  0
   17.2996   -8.4179   -2.6396 C   0  0  0  0  0  0  0  0  0  0  0  0
   22.7972   -5.4696   -1.5669 C   0  0  0  0  0  0  0  0  0  0  0  0
   15.8216   -6.4885   -2.9022 N   0  0  0  0  0  0  0  0  0  0  0  0
   23.2366   -8.2102   -1.4922 C   0  0  0  0  0  0  0  0  0  0  0  0
   24.0686   -5.9574   -1.3250 C   0  0  0  0  0  0  0  0  0  0  0  0
   14.6063   -7.2932   -3.0984 C   0  0  0  0  0  0  0  0  0  0  0  0
   15.5880   -5.0328   -2.9046 C   0  0  0  0  0  0  0  0  0  0  0  0
   24.2870   -7.3288   -1.2877 C   0  0  0  0  0  0  0  0  0  0  0  0
   25.1324   -5.0504   -1.1239 N   0  0  0  0  0  0  0  0  0  0  0  0
   26.5193   -5.4803   -0.8952 C   0  0  0  0  0  0  0  0  0  0  0  0
   24.9670   -3.5904   -1.2319 C   0  0  0  0  0  0  0  0  0  0  0  0
   13.7357   -6.6204   -3.2439 H   0  0  0  0  0  0  0  0  0  0  0  0
   14.7190   -7.9449   -3.9918 H   0  0  0  0  0  0  0  0  0  0  0  0
   14.4281   -7.9345   -2.2091 H   0  0  0  0  0  0  0  0  0  0  0  0
   15.8765   -4.6030   -1.9210 H   0  0  0  0  0  0  0  0  0  0  0  0
   16.2128   -4.5753   -3.7021 H   0  0  0  0  0  0  0  0  0  0  0  0
   14.5203   -4.7953   -3.0925 H   0  0  0  0  0  0  0  0  0  0  0  0
   27.1824   -4.6061   -0.7272 H   0  0  0  0  0  0  0  0  0  0  0  0
   26.5424   -6.1391    0.0000 H   0  0  0  0  0  0  0  0  0  0  0  0
   26.8898   -6.0449   -1.7783 H   0  0  0  0  0  0  0  0  0  0  0  0
   24.6139   -3.3212   -2.2516 H   0  0  0  0  0  0  0  0  0  0  0  0
   24.2124   -3.2624   -0.4841 H   0  0  0  0  0  0  0  0  0  0  0  0
   25.9276   -3.0663   -1.0416 H   0  0  0  0  0  0  0  0  0  0  0  0
   18.0181   -5.0919   -2.4772 H   0  0  0  0  0  0  0  0  0  0  0  0
   21.0702   -9.6775   -1.9197 H   0  0  0  0  0  0  0  0  0  0  0  0
   18.7225  -10.0362   -2.3796 H   0  0  0  0  0  0  0  0  0  0  0  0
   16.4437   -9.1056   -2.8095 H   0  0  0  0  0  0  0  0  0  0  0  0
   22.6167   -4.3738   -1.5971 H   0  0  0  0  0  0  0  0  0  0  0  0
   23.4138   -9.3066   -1.4616 H   0  0  0  0  0  0  0  0  0  0  0  0
   25.3075   -7.7229   -1.0933 H   0  0  0  0  0  0  0  0  0  0  0  0
  1  2  1  0  0  0  0
  1  3  2  0  0  0  0
  1  4  1  0  0  0  0
  2  5  2  0  0  0  0
  2  6  1  0  0  0  0
  3  7  1  0  0  0  0
  4  8  2  0  0  0  0
  5  9  1  0  0  0  0
  6 10  2  0  0  0  0
  7 11  2  0  0  0  0
  7  9  1  0  0  0  0
  8 10  1  0  0  0  0
  8 12  1  0  0  0  0
  9 13  2  0  0  0  0
 11 14  1  0  0  0  0
 12 15  1  0  0  0  0
 12 16  1  0  0  0  0
 13 17  1  0  0  0  0
 14 17  2  0  0  0  0
 14 18  1  0  0  0  0
 15 23  1  0  0  0  0
 15 21  1  0  0  0  0
 15 22  1  0  0  0  0
 16 24  1  0  0  0  0
 16 25  1  0  0  0  0
 16 26  1  0  0  0  0
 18 19  1  0  0  0  0
 18 20  1  0  0  0  0
 19 27  1  0  0  0  0
 19 28  1  0  0  0  0
 19 29  1  0  0  0  0
 20 32  1  0  0  0  0
 20 31  1  0  0  0  0
 20 30  1  0  0  0  0
 33  4  1  0  0  0  0
 34  5  1  0  0  0  0
 35  6  1  0  0  0  0
 36 10  1  0  0  0  0
 37 11  1  0  0  0  0
 38 13  1  0  0  0  0
 39 17  1  0  0  0  0
M  END
