decoy-882
 OpenBabel06062114513D

 68 72  0  0  0  0  0  0  0  0999 V2000
   -0.4260    1.4300    0.0220 N   0  0  0  0  0  0  0  0  0  0  0  0
   -0.3400    0.0430    0.1340 C   0  0  0  0  0  0  0  0  0  0  0  0
    0.6010    2.2210   -0.6680 C   0  0  0  0  0  0  0  0  0  0  0  0
   -1.5100    2.2310    0.5980 C   0  0  0  0  0  0  0  0  0  0  0  0
   -1.3240   -0.7640    0.7730 C   0  0  0  0  0  0  0  0  0  0  0  0
    0.7730   -0.6890   -0.3650 C   0  0  0  0  0  0  0  0  0  0  0  0
    0.6480    2.0070   -2.1440 C   0  0  0  0  0  0  0  0  0  0  0  0
   -1.0970    2.8880    1.8700 C   0  0  0  0  0  0  0  0  0  0  0  0
   -1.2250   -2.1650    0.8660 C   0  0  0  0  0  0  0  0  0  0  0  0
    0.8780   -2.0890   -0.2700 C   0  0  0  0  0  0  0  0  0  0  0  0
   -0.5220    2.1420   -2.9290 C   0  0  0  0  0  0  0  0  0  0  0  0
    1.8670    1.7060   -2.7990 C   0  0  0  0  0  0  0  0  0  0  0  0
   -1.0150    4.2980    1.9710 C   0  0  0  0  0  0  0  0  0  0  0  0
   -0.7800    2.1100    3.0090 C   0  0  0  0  0  0  0  0  0  0  0  0
   -0.1270   -2.8850    0.3320 C   0  0  0  0  0  0  0  0  0  0  0  0
   -0.4810    1.9550   -4.3230 C   0  0  0  0  0  0  0  0  0  0  0  0
    1.9090    1.5180   -4.1930 C   0  0  0  0  0  0  0  0  0  0  0  0
   -0.6210    4.9120    3.1750 C   0  0  0  0  0  0  0  0  0  0  0  0
   -0.3870    2.7230    4.2130 C   0  0  0  0  0  0  0  0  0  0  0  0
   -0.0170   -4.2630    0.4280 N   0  0  0  0  0  0  0  0  0  0  0  0
    0.7340    1.6400   -4.9550 C   0  0  0  0  0  0  0  0  0  0  0  0
   -0.3060    4.1240    4.2960 C   0  0  0  0  0  0  0  0  0  0  0  0
    1.2890   -4.9230    0.4550 C   0  0  0  0  0  0  0  0  0  0  0  0
   -1.1830   -5.1410    0.5110 C   0  0  0  0  0  0  0  0  0  0  0  0
    2.1570   -4.4570    1.5730 C   0  0  0  0  0  0  0  0  0  0  0  0
   -1.2630   -6.0880   -0.6360 C   0  0  0  0  0  0  0  0  0  0  0  0
    1.7180   -4.5850    2.9130 C   0  0  0  0  0  0  0  0  0  0  0  0
    3.4300   -3.8890    1.3290 C   0  0  0  0  0  0  0  0  0  0  0  0
   -1.2150   -7.4890   -0.4410 C   0  0  0  0  0  0  0  0  0  0  0  0
   -1.3950   -5.5910   -1.9550 C   0  0  0  0  0  0  0  0  0  0  0  0
    2.5240   -4.1430    3.9790 C   0  0  0  0  0  0  0  0  0  0  0  0
    4.2360   -3.4470    2.3950 C   0  0  0  0  0  0  0  0  0  0  0  0
   -1.2890   -8.3690   -1.5360 C   0  0  0  0  0  0  0  0  0  0  0  0
   -1.4690   -6.4710   -3.0500 C   0  0  0  0  0  0  0  0  0  0  0  0
    3.7820   -3.5730    3.7200 C   0  0  0  0  0  0  0  0  0  0  0  0
   -1.4150   -7.8610   -2.8410 C   0  0  0  0  0  0  0  0  0  0  0  0
    0.4530    3.2970   -0.5390 H   0  0  0  0  0  0  0  0  0  0  0  0
    1.5680    2.0210   -0.1990 H   0  0  0  0  0  0  0  0  0  0  0  0
   -1.8220    2.9830   -0.1330 H   0  0  0  0  0  0  0  0  0  0  0  0
   -2.4280    1.6830    0.7850 H   0  0  0  0  0  0  0  0  0  0  0  0
   -2.1410   -0.3570    1.2200 H   0  0  0  0  0  0  0  0  0  0  0  0
    1.5570   -0.2170   -0.8080 H   0  0  0  0  0  0  0  0  0  0  0  0
   -1.9500   -2.6420    1.4010 H   0  0  0  0  0  0  0  0  0  0  0  0
    1.7020   -2.5190   -0.6900 H   0  0  0  0  0  0  0  0  0  0  0  0
   -1.4160    2.3750   -2.4920 H   0  0  0  0  0  0  0  0  0  0  0  0
    2.7350    1.6210   -2.2660 H   0  0  0  0  0  0  0  0  0  0  0  0
   -1.2370    4.8910    1.1680 H   0  0  0  0  0  0  0  0  0  0  0  0
   -0.8340    1.0910    2.9720 H   0  0  0  0  0  0  0  0  0  0  0  0
   -1.3360    2.0500   -4.8770 H   0  0  0  0  0  0  0  0  0  0  0  0
    2.7950    1.2960   -4.6530 H   0  0  0  0  0  0  0  0  0  0  0  0
   -0.5630    5.9310    3.2350 H   0  0  0  0  0  0  0  0  0  0  0  0
   -0.1590    2.1500    5.0280 H   0  0  0  0  0  0  0  0  0  0  0  0
    0.7640    1.5040   -5.9680 H   0  0  0  0  0  0  0  0  0  0  0  0
   -0.0200    4.5700    5.1710 H   0  0  0  0  0  0  0  0  0  0  0  0
    1.1980   -6.0060    0.5860 H   0  0  0  0  0  0  0  0  0  0  0  0
    1.7750   -4.7930   -0.5150 H   0  0  0  0  0  0  0  0  0  0  0  0
   -1.1440   -5.6750    1.4640 H   0  0  0  0  0  0  0  0  0  0  0  0
   -2.1350   -4.6130    0.4990 H   0  0  0  0  0  0  0  0  0  0  0  0
    0.8070   -4.9990    3.1200 H   0  0  0  0  0  0  0  0  0  0  0  0
    3.7800   -3.7910    0.3730 H   0  0  0  0  0  0  0  0  0  0  0  0
   -1.1210   -7.8780    0.5010 H   0  0  0  0  0  0  0  0  0  0  0  0
   -1.4360   -4.5830   -2.1250 H   0  0  0  0  0  0  0  0  0  0  0  0
    2.1940   -4.2380    4.9420 H   0  0  0  0  0  0  0  0  0  0  0  0
    5.1530   -3.0350    2.2060 H   0  0  0  0  0  0  0  0  0  0  0  0
   -1.2510   -9.3790   -1.3840 H   0  0  0  0  0  0  0  0  0  0  0  0
   -1.5620   -6.1010   -3.9990 H   0  0  0  0  0  0  0  0  0  0  0  0
    4.3680   -3.2520    4.4940 H   0  0  0  0  0  0  0  0  0  0  0  0
   -1.4690   -8.5000   -3.6370 H   0  0  0  0  0  0  0  0  0  0  0  0
  1  2  1  0  0  0  0
  1  4  1  0  0  0  0
  1  3  1  0  0  0  0
  2  5  2  0  0  0  0
  2  6  1  0  0  0  0
  3 37  1  0  0  0  0
  3 38  1  0  0  0  0
  3  7  1  0  0  0  0
  4 40  1  0  0  0  0
  4  8  1  0  0  0  0
  4 39  1  0  0  0  0
  5  9  1  0  0  0  0
  5 41  1  0  0  0  0
  6 10  2  0  0  0  0
  6 42  1  0  0  0  0
  7 11  2  0  0  0  0
  7 12  1  0  0  0  0
  8 13  2  0  0  0  0
  8 14  1  0  0  0  0
  9 43  1  0  0  0  0
  9 15  2  0  0  0  0
 10 15  1  0  0  0  0
 10 44  1  0  0  0  0
 11 45  1  0  0  0  0
 11 16  1  0  0  0  0
 12 46  1  0  0  0  0
 12 17  2  0  0  0  0
 13 18  1  0  0  0  0
 13 47  1  0  0  0  0
 14 19  2  0  0  0  0
 14 48  1  0  0  0  0
 15 20  1  0  0  0  0
 16 21  2  0  0  0  0
 16 49  1  0  0  0  0
 17 21  1  0  0  0  0
 17 50  1  0  0  0  0
 18 51  1  0  0  0  0
 18 22  2  0  0  0  0
 19 22  1  0  0  0  0
 19 52  1  0  0  0  0
 20 23  1  0  0  0  0
 20 24  1  0  0  0  0
 21 53  1  0  0  0  0
 22 54  1  0  0  0  0
 23 55  1  0  0  0  0
 23 25  1  0  0  0  0
 23 56  1  0  0  0  0
 24 57  1  0  0  0  0
 24 26  1  0  0  0  0
 24 58  1  0  0  0  0
 25 27  2  0  0  0  0
 25 28  1  0  0  0  0
 26 29  2  0  0  0  0
 26 30  1  0  0  0  0
 27 59  1  0  0  0  0
 27 31  1  0  0  0  0
 28 32  2  0  0  0  0
 28 60  1  0  0  0  0
 29 61  1  0  0  0  0
 29 33  1  0  0  0  0
 30 34  2  0  0  0  0
 30 62  1  0  0  0  0
 31 63  1  0  0  0  0
 31 35  2  0  0  0  0
 32 35  1  0  0  0  0
 32 64  1  0  0  0  0
 33 65  1  0  0  0  0
 33 36  2  0  0  0  0
 34 36  1  0  0  0  0
 34 66  1  0  0  0  0
 35 67  1  0  0  0  0
 36 68  1  0  0  0  0
M  END
