decoy-246
 OpenBabel06062114513D

 42 44  0  0  0  0  0  0  0  0999 V2000
   -0.3250    1.6450    0.0190 C   0  0  0  0  0  0  0  0  0  0  0  0
   -0.1860    0.2590    0.1220 C   0  0  0  0  0  0  0  0  0  0  0  0
    0.8930    2.3160   -0.1200 C   0  0  0  0  0  0  0  0  0  0  0  0
   -1.5340    2.2810    0.0380 C   0  0  0  0  0  0  0  0  0  0  0  0
   -0.2380   -0.5570   -1.0310 C   0  0  0  0  0  0  0  0  0  0  0  0
   -0.0090   -0.3480    1.3830 C   0  0  0  0  0  0  0  0  0  0  0  0
    1.5890    2.7860    1.0170 C   0  0  0  0  0  0  0  0  0  0  0  0
    1.4340    2.5520   -1.4000 C   0  0  0  0  0  0  0  0  0  0  0  0
   -2.7390    1.5860    0.1740 C   0  0  0  0  0  0  0  0  0  0  0  0
   -1.6410    3.6650   -0.0880 C   0  0  0  0  0  0  0  0  0  0  0  0
   -0.1060   -1.9660   -0.9530 C   0  0  0  0  0  0  0  0  0  0  0  0
    0.1160   -1.7420    1.4830 C   0  0  0  0  0  0  0  0  0  0  0  0
    2.8200    3.4800    0.9020 C   0  0  0  0  0  0  0  0  0  0  0  0
    2.6560    3.2300   -1.5360 C   0  0  0  0  0  0  0  0  0  0  0  0
   -3.9490    2.1980    0.1250 C   0  0  0  0  0  0  0  0  0  0  0  0
   -2.8350    4.2870   -0.1400 C   0  0  0  0  0  0  0  0  0  0  0  0
    0.0630   -2.5500    0.3320 C   0  0  0  0  0  0  0  0  0  0  0  0
   -0.1350   -2.7430   -2.1450 C   0  0  0  0  0  0  0  0  0  0  0  0
    3.3520    3.6850   -0.4000 C   0  0  0  0  0  0  0  0  0  0  0  0
    3.4710    3.9570    2.0750 C   0  0  0  0  0  0  0  0  0  0  0  0
   -3.9940    3.5670   -0.0600 C   0  0  0  0  0  0  0  0  0  0  0  0
   -5.1110    1.4530    0.2820 C   0  0  0  0  0  0  0  0  0  0  0  0
    0.1590   -3.8900    0.5300 O   0  0  0  0  0  0  0  0  0  0  0  0
   -0.4570   -2.2010   -3.3430 O   0  0  0  0  0  0  0  0  0  0  0  0
    0.2320   -4.0440   -2.1770 O   0  0  0  0  0  0  0  0  0  0  0  0
    4.5400    4.3010   -0.6270 O   0  0  0  0  0  0  0  0  0  0  0  0
    3.0470    3.6180    3.3140 O   0  0  0  0  0  0  0  0  0  0  0  0
    4.4960    4.8380    2.0320 O   0  0  0  0  0  0  0  0  0  0  0  0
   -5.0520    4.1630   -0.2270 O   0  0  0  0  0  0  0  0  0  0  0  0
   -6.0920    1.8610    1.1180 O   0  0  0  0  0  0  0  0  0  0  0  0
   -5.2760    0.2720   -0.3570 O   0  0  0  0  0  0  0  0  0  0  0  0
   -0.3680   -0.1060   -1.9420 H   0  0  0  0  0  0  0  0  0  0  0  0
    0.0230    0.2180    2.2350 H   0  0  0  0  0  0  0  0  0  0  0  0
    1.1770    2.6280    1.9410 H   0  0  0  0  0  0  0  0  0  0  0  0
    0.9460    2.2330   -2.2410 H   0  0  0  0  0  0  0  0  0  0  0  0
   -2.7210    0.6040    0.3340 H   0  0  0  0  0  0  0  0  0  0  0  0
   -0.8320    4.2390   -0.1450 H   0  0  0  0  0  0  0  0  0  0  0  0
    0.2360   -2.1700    2.4050 H   0  0  0  0  0  0  0  0  0  0  0  0
    3.0420    3.3860   -2.4710 H   0  0  0  0  0  0  0  0  0  0  0  0
   -2.8660    5.2780   -0.2360 H   0  0  0  0  0  0  0  0  0  0  0  0
   -0.4810   -4.2930   -0.0920 H   0  0  0  0  0  0  0  0  0  0  0  0
    5.1360    3.9890    0.0850 H   0  0  0  0  0  0  0  0  0  0  0  0
  1  4  2  0  0  0  0
  1  2  1  0  0  0  0
  1  3  1  0  0  0  0
  2  6  2  0  0  0  0
  2  5  1  0  0  0  0
  3  7  2  0  0  0  0
  3  8  1  0  0  0  0
  4  9  1  0  0  0  0
  4 10  1  0  0  0  0
  5 11  2  0  0  0  0
  5 32  1  0  0  0  0
  6 12  1  0  0  0  0
  6 33  1  0  0  0  0
  7 34  1  0  0  0  0
  7 13  1  0  0  0  0
  8 14  2  0  0  0  0
  8 35  1  0  0  0  0
  9 36  1  0  0  0  0
  9 15  2  0  0  0  0
 10 16  2  0  0  0  0
 10 37  1  0  0  0  0
 11 17  1  0  0  0  0
 11 18  1  0  0  0  0
 12 38  1  0  0  0  0
 12 17  2  0  0  0  0
 13 20  1  0  0  0  0
 13 19  2  0  0  0  0
 14 19  1  0  0  0  0
 14 39  1  0  0  0  0
 15 22  1  0  0  0  0
 15 21  1  0  0  0  0
 16 21  1  0  0  0  0
 16 40  1  0  0  0  0
 17 23  1  0  0  0  0
 18 24  2  0  0  0  0
 18 25  1  0  0  0  0
 19 26  1  0  0  0  0
 20 27  1  0  0  0  0
 20 28  2  0  0  0  0
 21 29  2  0  0  0  0
 22 30  1  0  0  0  0
 22 31  2  0  0  0  0
 23 41  1  0  0  0  0
 26 42  1  0  0  0  0
M  END
