decoy-235
 OpenBabel06062114513D

 45 47  0  0  0  0  0  0  0  0999 V2000
    0.1160    1.5110    0.2740 C   0  0  0  0  0  0  0  0  0  0  0  0
    0.0690    0.0270    0.1110 C   0  0  0  0  0  0  0  0  0  0  0  0
    1.5070    2.0130    0.0450 C   0  0  0  0  0  0  0  0  0  0  0  0
   -0.8380    2.1040   -0.6400 O   0  0  0  0  0  0  0  0  0  0  0  0
   -0.1960   -0.8220    1.2120 C   0  0  0  0  0  0  0  0  0  0  0  0
    0.2880   -0.5640   -1.1580 C   0  0  0  0  0  0  0  0  0  0  0  0
    1.8550    2.8180   -1.0690 C   0  0  0  0  0  0  0  0  0  0  0  0
    2.5280    1.6810    0.9710 C   0  0  0  0  0  0  0  0  0  0  0  0
   -2.1200    2.5680   -0.1580 C   0  0  0  0  0  0  0  0  0  0  0  0
   -0.2480   -2.2190    1.0490 C   0  0  0  0  0  0  0  0  0  0  0  0
    0.2370   -1.9600   -1.3220 C   0  0  0  0  0  0  0  0  0  0  0  0
    3.1750    3.2700   -1.2510 C   0  0  0  0  0  0  0  0  0  0  0  0
    3.8480    2.1320    0.7910 C   0  0  0  0  0  0  0  0  0  0  0  0
   -2.7600    3.4190   -1.2880 C   0  0  0  0  0  0  0  0  0  0  0  0
   -3.0850    1.4180    0.2510 C   0  0  0  0  0  0  0  0  0  0  0  0
   -0.0330   -2.7880   -0.2180 C   0  0  0  0  0  0  0  0  0  0  0  0
    4.1720    2.9280   -0.3220 C   0  0  0  0  0  0  0  0  0  0  0  0
   -3.2140    2.5340   -2.4820 C   0  0  0  0  0  0  0  0  0  0  0  0
   -3.5280    0.5800   -0.9780 C   0  0  0  0  0  0  0  0  0  0  0  0
   -4.1150    1.4060   -2.0820 *   0  0  0  0  0  0  0  0  0  0  0  0
   -5.5280    1.8210   -1.8380 C   0  0  0  0  0  0  0  0  0  0  0  0
   -0.1430    1.7950    1.3000 H   0  0  0  0  0  0  0  0  0  0  0  0
   -0.3560   -0.4300    2.1430 H   0  0  0  0  0  0  0  0  0  0  0  0
    0.4830    0.0230   -1.9730 H   0  0  0  0  0  0  0  0  0  0  0  0
    1.1550    3.0790   -1.7660 H   0  0  0  0  0  0  0  0  0  0  0  0
    2.3140    1.1040    1.7890 H   0  0  0  0  0  0  0  0  0  0  0  0
   -1.9610    3.2250    0.7030 H   0  0  0  0  0  0  0  0  0  0  0  0
   -0.4430   -2.8210    1.8520 H   0  0  0  0  0  0  0  0  0  0  0  0
    0.3940   -2.3730   -2.2440 H   0  0  0  0  0  0  0  0  0  0  0  0
    3.4110    3.8480   -2.0610 H   0  0  0  0  0  0  0  0  0  0  0  0
    4.5720    1.8830    1.4680 H   0  0  0  0  0  0  0  0  0  0  0  0
   -3.6210    3.9620   -0.8920 H   0  0  0  0  0  0  0  0  0  0  0  0
   -2.0390    4.1610   -1.6420 H   0  0  0  0  0  0  0  0  0  0  0  0
   -2.6070    0.7680    0.9850 H   0  0  0  0  0  0  0  0  0  0  0  0
   -3.9680    1.8460    0.7320 H   0  0  0  0  0  0  0  0  0  0  0  0
   -0.0710   -3.8030   -0.3370 H   0  0  0  0  0  0  0  0  0  0  0  0
    5.1310    3.2560   -0.4540 H   0  0  0  0  0  0  0  0  0  0  0  0
   -3.6990    3.1650   -3.2320 H   0  0  0  0  0  0  0  0  0  0  0  0
   -2.3270    2.1090   -2.9610 H   0  0  0  0  0  0  0  0  0  0  0  0
   -2.6590    0.0500   -1.3750 H   0  0  0  0  0  0  0  0  0  0  0  0
   -4.2370   -0.1860   -0.6540 H   0  0  0  0  0  0  0  0  0  0  0  0
   -5.9300    2.3240   -2.7200 H   0  0  0  0  0  0  0  0  0  0  0  0
   -6.1520    0.9450   -1.6520 H   0  0  0  0  0  0  0  0  0  0  0  0
   -5.6140    2.4960   -0.9850 H   0  0  0  0  0  0  0  0  0  0  0  0
   -4.1600    0.7870   -2.8950 H   0  0  0  0  0  0  0  0  0  0  0  0
  1 22  1  0  0  0  0
  1  2  1  0  0  0  0
  1  3  1  0  0  0  0
  1  4  1  0  0  0  0
  2  5  2  0  0  0  0
  2  6  1  0  0  0  0
  3  8  2  0  0  0  0
  3  7  1  0  0  0  0
  4  9  1  0  0  0  0
  5 23  1  0  0  0  0
  5 10  1  0  0  0  0
  6 11  2  0  0  0  0
  6 24  1  0  0  0  0
  7 12  2  0  0  0  0
  7 25  1  0  0  0  0
  8 26  1  0  0  0  0
  8 13  1  0  0  0  0
  9 15  1  0  0  0  0
  9 27  1  0  0  0  0
  9 14  1  0  0  0  0
 10 28  1  0  0  0  0
 10 16  2  0  0  0  0
 11 16  1  0  0  0  0
 11 29  1  0  0  0  0
 12 17  1  0  0  0  0
 12 30  1  0  0  0  0
 13 31  1  0  0  0  0
 13 17  2  0  0  0  0
 14 32  1  0  0  0  0
 14 18  1  0  0  0  0
 14 33  1  0  0  0  0
 15 35  1  0  0  0  0
 15 34  1  0  0  0  0
 15 19  1  0  0  0  0
 16 36  1  0  0  0  0
 17 37  1  0  0  0  0
 18 20  1  0  0  0  0
 18 38  1  0  0  0  0
 18 39  1  0  0  0  0
 19 41  1  0  0  0  0
 19 20  1  0  0  0  0
 19 40  1  0  0  0  0
 20 21  1  0  0  0  0
 20 45  1  0  0  0  0
 21 43  1  0  0  0  0
 21 44  1  0  0  0  0
 21 42  1  0  0  0  0
M  END
