decoy-399
 OpenBabel06062114513D

 53 54  0  0  0  0  0  0  0  0999 V2000
   -0.2570    1.8270   -0.2500 C   0  0  0  0  0  0  0  0  0  0  0  0
   -0.9420    1.4400    1.1230 C   0  0  0  0  0  0  0  0  0  0  0  0
    0.8250    0.7300   -0.4680 C   0  0  0  0  0  0  0  0  0  0  0  0
   -1.1470    2.0760   -1.3900 C   0  0  0  0  0  0  0  0  0  0  0  0
   -0.2510    0.1770    1.5490 C   0  0  0  0  0  0  0  0  0  0  0  0
   -0.6200    2.5100    2.2160 C   0  0  0  0  0  0  0  0  0  0  0  0
   -2.5060    1.2910    1.0720 C   0  0  0  0  0  0  0  0  0  0  0  0
    0.3910   -0.4900    0.3840 C   0  0  0  0  0  0  0  0  0  0  0  0
   -1.8340    3.2100   -1.4220 N   0  0  0  0  0  0  0  0  0  0  0  0
   -1.2590    1.2670   -2.3040 O   0  0  0  0  0  0  0  0  0  0  0  0
   -0.9860   -0.6650    2.3330 O   0  0  0  0  0  0  0  0  0  0  0  0
   -0.5530   -1.4480   -0.4140 C   0  0  0  0  0  0  0  0  0  0  0  0
    1.6320   -1.3020    0.8690 C   0  0  0  0  0  0  0  0  0  0  0  0
   -2.7420    3.6110   -2.4500 C   0  0  0  0  0  0  0  0  0  0  0  0
   -3.3550    4.9910   -2.1320 C   0  0  0  0  0  0  0  0  0  0  0  0
   -2.3070    5.9730   -2.0400 O   0  0  0  0  0  0  0  0  0  0  0  0
   -2.7530    7.3110   -1.7570 C   0  0  0  0  0  0  0  0  0  0  0  0
   -1.5270    8.2490   -1.6730 C   0  0  0  0  0  0  0  0  0  0  0  0
   -0.7450    8.2430   -2.8840 N   0  0  0  0  0  0  0  0  0  0  0  0
   -1.0970    8.7770   -4.0440 C   0  0  0  0  0  0  0  0  0  0  0  0
    0.4550    7.7070   -3.0460 C   0  0  0  0  0  0  0  0  0  0  0  0
   -0.1210    8.5700   -4.9250 C   0  0  0  0  0  0  0  0  0  0  0  0
   -2.1320    9.3800   -4.2930 O   0  0  0  0  0  0  0  0  0  0  0  0
    0.8450    7.9030   -4.3050 C   0  0  0  0  0  0  0  0  0  0  0  0
    1.1140    7.1040   -2.2100 O   0  0  0  0  0  0  0  0  0  0  0  0
    0.3020    2.7650   -0.1380 H   0  0  0  0  0  0  0  0  0  0  0  0
    0.9790    0.4640   -1.5170 H   0  0  0  0  0  0  0  0  0  0  0  0
    1.7830    1.1150   -0.1000 H   0  0  0  0  0  0  0  0  0  0  0  0
   -1.0220    2.2080    3.1860 H   0  0  0  0  0  0  0  0  0  0  0  0
    0.4600    2.6390    2.3270 H   0  0  0  0  0  0  0  0  0  0  0  0
   -1.0520    3.4760    1.9480 H   0  0  0  0  0  0  0  0  0  0  0  0
   -2.9050    0.9900    2.0430 H   0  0  0  0  0  0  0  0  0  0  0  0
   -2.9790    2.2380    0.8070 H   0  0  0  0  0  0  0  0  0  0  0  0
   -2.8090    0.5430    0.3420 H   0  0  0  0  0  0  0  0  0  0  0  0
   -1.7110    3.8220   -0.6780 H   0  0  0  0  0  0  0  0  0  0  0  0
   -0.3550   -1.3470    2.6420 H   0  0  0  0  0  0  0  0  0  0  0  0
   -0.8950   -2.2690    0.2190 H   0  0  0  0  0  0  0  0  0  0  0  0
   -1.4290   -0.9270   -0.7910 H   0  0  0  0  0  0  0  0  0  0  0  0
   -0.0260   -1.8760   -1.2700 H   0  0  0  0  0  0  0  0  0  0  0  0
    1.3230   -2.1540    1.4780 H   0  0  0  0  0  0  0  0  0  0  0  0
    2.2010   -1.6770    0.0160 H   0  0  0  0  0  0  0  0  0  0  0  0
    2.2940   -0.6800    1.4750 H   0  0  0  0  0  0  0  0  0  0  0  0
   -2.2150    3.6650   -3.4060 H   0  0  0  0  0  0  0  0  0  0  0  0
   -3.5470    2.8760   -2.5340 H   0  0  0  0  0  0  0  0  0  0  0  0
   -4.0530    5.2570   -2.9310 H   0  0  0  0  0  0  0  0  0  0  0  0
   -3.9070    4.9300   -1.1890 H   0  0  0  0  0  0  0  0  0  0  0  0
   -3.4300    7.6620   -2.5410 H   0  0  0  0  0  0  0  0  0  0  0  0
   -3.2830    7.3400   -0.8000 H   0  0  0  0  0  0  0  0  0  0  0  0
   -1.8650    9.2690   -1.4660 H   0  0  0  0  0  0  0  0  0  0  0  0
   -0.9210    7.9360   -0.8180 H   0  0  0  0  0  0  0  0  0  0  0  0
   -0.1110    8.8590   -5.8750 H   0  0  0  0  0  0  0  0  0  0  0  0
    1.7010    7.6050   -4.7110 H   0  0  0  0  0  0  0  0  0  0  0  0
    0.5260    0.4800    2.1410 H   0  0  0  0  0  0  0  0  0  0  0  0
  1 26  1  0  0  0  0
  1  2  1  0  0  0  0
  1  3  1  0  0  0  0
  1  4  1  0  0  0  0
  2  5  1  0  0  0  0
  2  6  1  0  0  0  0
  2  7  1  0  0  0  0
  3 28  1  0  0  0  0
  3  8  1  0  0  0  0
  3 27  1  0  0  0  0
  4  9  1  0  0  0  0
  4 10  2  0  0  0  0
  5 53  1  0  0  0  0
  5 11  1  0  0  0  0
  5  8  1  0  0  0  0
  6 30  1  0  0  0  0
  6 29  1  0  0  0  0
  6 31  1  0  0  0  0
  7 32  1  0  0  0  0
  7 33  1  0  0  0  0
  7 34  1  0  0  0  0
  8 13  1  0  0  0  0
  8 12  1  0  0  0  0
  9 35  1  0  0  0  0
  9 14  1  0  0  0  0
 11 36  1  0  0  0  0
 12 37  1  0  0  0  0
 12 38  1  0  0  0  0
 12 39  1  0  0  0  0
 13 42  1  0  0  0  0
 13 40  1  0  0  0  0
 13 41  1  0  0  0  0
 14 15  1  0  0  0  0
 14 43  1  0  0  0  0
 14 44  1  0  0  0  0
 15 16  1  0  0  0  0
 15 46  1  0  0  0  0
 15 45  1  0  0  0  0
 16 17  1  0  0  0  0
 17 18  1  0  0  0  0
 17 48  1  0  0  0  0
 17 47  1  0  0  0  0
 18 49  1  0  0  0  0
 18 50  1  0  0  0  0
 18 19  1  0  0  0  0
 19 20  1  0  0  0  0
 19 21  1  0  0  0  0
 20 22  1  0  0  0  0
 20 23  2  0  0  0  0
 21 25  2  0  0  0  0
 21 24  1  0  0  0  0
 22 24  2  0  0  0  0
 22 51  1  0  0  0  0
 24 52  1  0  0  0  0
M  END
