
  ACD/Labs06062115523D

 39 41  0  0  0  0  0  0  0  0  1 V2000
   19.4899   -8.3614    0.3767 C   0  0  0  0  0  0  0  0  0  0  0  0
   20.8345   -8.5516    0.0500 C   0  0  0  0  0  0  0  0  0  0  0  0
   19.0462   -7.0549    0.1688 C   0  0  0  0  0  0  0  0  0  0  0  0
   18.6879   -9.3579    0.8542 C   0  0  0  0  0  0  0  0  0  0  0  0
   21.2057   -8.9581   -1.2529 C   0  0  0  0  0  0  0  0  0  0  0  0
   21.8429   -8.3575    1.0213 C   0  0  0  0  0  0  0  0  0  0  0  0
   19.1171   -6.0990    1.2084 C   0  0  0  0  0  0  0  0  0  0  0  0
   18.4994   -6.6724   -1.0783 C   0  0  0  0  0  0  0  0  0  0  0  0
   17.3450   -9.1408    1.1730 C   0  0  0  0  0  0  0  0  0  0  0  0
   19.1596  -10.6588    1.0553 C   0  0  0  0  0  0  0  0  0  0  0  0
   22.5595   -9.1599   -1.5787 C   0  0  0  0  0  0  0  0  0  0  0  0
   23.1974   -8.5597    0.6943 C   0  0  0  0  0  0  0  0  0  0  0  0
   18.6585   -4.7847    1.0022 C   0  0  0  0  0  0  0  0  0  0  0  0
   18.0411   -5.3578   -1.2836 C   0  0  0  0  0  0  0  0  0  0  0  0
   16.5537  -10.1273    1.6469 C   0  0  0  0  0  0  0  0  0  0  0  0
   18.3656  -11.6421    1.5282 C   0  0  0  0  0  0  0  0  0  0  0  0
   23.5597   -8.9603   -0.6071 C   0  0  0  0  0  0  0  0  0  0  0  0
   18.1198   -4.4095   -0.2446 C   0  0  0  0  0  0  0  0  0  0  0  0
   17.0558  -11.3866    1.8286 C   0  0  0  0  0  0  0  0  0  0  0  0
   24.8536   -9.1545   -0.9181 N   0  0  0  0  0  0  0  0  0  0  0  0
   17.6807   -3.1539   -0.4408 N   0  0  0  0  0  0  0  0  0  0  0  0
   16.3098  -12.3247    2.2780 N   0  0  0  0  0  0  0  0  0  0  0  0
   20.4924   -9.1148   -1.9710 H   0  0  0  0  0  0  0  0  0  0  0  0
   21.5997   -8.0731    1.9745 H   0  0  0  0  0  0  0  0  0  0  0  0
   19.4991   -6.3533    2.1234 H   0  0  0  0  0  0  0  0  0  0  0  0
   18.4280   -7.3485   -1.8434 H   0  0  0  0  0  0  0  0  0  0  0  0
   16.9295   -8.2461    1.0591 H   0  0  0  0  0  0  0  0  0  0  0  0
   20.1026  -10.8980    0.8530 H   0  0  0  0  0  0  0  0  0  0  0  0
   22.8107   -9.4541   -2.5256 H   0  0  0  0  0  0  0  0  0  0  0  0
   23.9145   -8.4151    1.4088 H   0  0  0  0  0  0  0  0  0  0  0  0
   18.7174   -4.1053    1.7651 H   0  0  0  0  0  0  0  0  0  0  0  0
   17.6494   -5.0973   -2.1927 H   0  0  0  0  0  0  0  0  0  0  0  0
   15.6020   -9.9295    1.8617 H   0  0  0  0  0  0  0  0  0  0  0  0
   18.7428  -12.5556    1.6564 H   0  0  0  0  0  0  0  0  0  0  0  0
   25.1016   -9.4319   -1.8143 H   0  0  0  0  0  0  0  0  0  0  0  0
   25.5415   -9.0173   -0.2486 H   0  0  0  0  0  0  0  0  0  0  0  0
   17.7341   -2.5015    0.2754 H   0  0  0  0  0  0  0  0  0  0  0  0
   17.3088   -2.8967   -1.2995 H   0  0  0  0  0  0  0  0  0  0  0  0
   15.4126  -12.1604    2.4868 H   0  0  0  0  0  0  0  0  0  0  0  0
  1  2  1  0  0  0  0
  1  3  1  0  0  0  0
  1  4  2  0  0  0  0
  2  6  2  0  0  0  0
  2  5  1  0  0  0  0
  3  7  2  0  0  0  0
  3  8  1  0  0  0  0
  4 10  1  0  0  0  0
  4  9  1  0  0  0  0
  5 11  2  0  0  0  0
  5 23  1  0  0  0  0
  6 12  1  0  0  0  0
  6 24  1  0  0  0  0
  7 25  1  0  0  0  0
  7 13  1  0  0  0  0
  8 14  2  0  0  0  0
  8 26  1  0  0  0  0
  9 15  2  0  0  0  0
  9 27  1  0  0  0  0
 10 28  1  0  0  0  0
 10 16  2  0  0  0  0
 11 17  1  0  0  0  0
 11 29  1  0  0  0  0
 12 30  1  0  0  0  0
 12 17  2  0  0  0  0
 13 31  1  0  0  0  0
 13 18  2  0  0  0  0
 14 18  1  0  0  0  0
 14 32  1  0  0  0  0
 15 19  1  0  0  0  0
 15 33  1  0  0  0  0
 16 34  1  0  0  0  0
 16 19  1  0  0  0  0
 17 20  1  0  0  0  0
 18 21  1  0  0  0  0
 19 22  2  0  0  0  0
 20 36  1  0  0  0  0
 20 35  1  0  0  0  0
 21 37  1  0  0  0  0
 21 38  1  0  0  0  0
 22 39  1  0  0  0  0
M  END
