decoy-28
 OpenBabel06062114503D

 42 43  0  0  0  0  0  0  0  0999 V2000
   -0.0670    1.4120   -0.1940 C   0  0  0  0  0  0  0  0  0  0  0  0
   -0.1940   -0.0520   -0.3820 C   0  0  0  0  0  0  0  0  0  0  0  0
    1.1670    2.0770   -0.3840 C   0  0  0  0  0  0  0  0  0  0  0  0
   -1.1990    2.1740    0.1810 C   0  0  0  0  0  0  0  0  0  0  0  0
   -0.5650   -0.6630    0.8580 O   0  0  0  0  0  0  0  0  0  0  0  0
    1.2670    3.4690   -0.2010 C   0  0  0  0  0  0  0  0  0  0  0  0
   -1.0980    3.5660    0.3640 C   0  0  0  0  0  0  0  0  0  0  0  0
   -0.7940   -1.9850    1.0650 C   0  0  0  0  0  0  0  0  0  0  0  0
    0.1350    4.2140    0.1730 C   0  0  0  0  0  0  0  0  0  0  0  0
   -1.1360   -2.3700    2.3140 N   0  0  0  0  0  0  0  0  0  0  0  0
   -0.6790   -2.8770    0.0520 O   0  0  0  0  0  0  0  0  0  0  0  0
   -1.3940   -3.7190    2.7290 C   0  0  0  0  0  0  0  0  0  0  0  0
   -1.4460   -3.7870    4.2790 C   0  0  0  0  0  0  0  0  0  0  0  0
   -2.6500   -4.2570    2.1520 C   0  0  0  0  0  0  0  0  0  0  0  0
    0.1330   -3.3030    5.0280 S   0  0  0  0  0  0  0  0  0  0  0  0
   -2.9500   -5.5680    2.2900 O   0  0  0  0  0  0  0  0  0  0  0  0
   -3.5330   -3.4750    1.4890 O   0  0  0  0  0  0  0  0  0  0  0  0
   -0.3420   -3.5030    6.7640 C   0  0  0  0  0  0  0  0  0  0  0  0
    0.8050   -3.1940    7.6540 C   0  0  0  0  0  0  0  0  0  0  0  0
    0.7930   -2.0560    8.4950 C   0  0  0  0  0  0  0  0  0  0  0  0
    1.9320   -4.0500    7.6870 C   0  0  0  0  0  0  0  0  0  0  0  0
    1.8840   -1.7750    9.3390 C   0  0  0  0  0  0  0  0  0  0  0  0
    3.0230   -3.7700    8.5320 C   0  0  0  0  0  0  0  0  0  0  0  0
    2.9990   -2.6320    9.3580 C   0  0  0  0  0  0  0  0  0  0  0  0
   -0.9590   -0.2520   -1.1370 H   0  0  0  0  0  0  0  0  0  0  0  0
    0.7460   -0.4930   -0.7250 H   0  0  0  0  0  0  0  0  0  0  0  0
    2.0030    1.5530   -0.6560 H   0  0  0  0  0  0  0  0  0  0  0  0
   -2.1040    1.7190    0.3240 H   0  0  0  0  0  0  0  0  0  0  0  0
    2.1640    3.9400   -0.3410 H   0  0  0  0  0  0  0  0  0  0  0  0
   -1.9220    4.1070    0.6360 H   0  0  0  0  0  0  0  0  0  0  0  0
    0.2080    5.2250    0.3060 H   0  0  0  0  0  0  0  0  0  0  0  0
   -1.1740   -1.6780    2.9940 H   0  0  0  0  0  0  0  0  0  0  0  0
   -0.5690   -4.3510    2.3880 H   0  0  0  0  0  0  0  0  0  0  0  0
   -2.2350   -3.1280    4.6510 H   0  0  0  0  0  0  0  0  0  0  0  0
   -1.6680   -4.8090    4.5970 H   0  0  0  0  0  0  0  0  0  0  0  0
   -1.1870   -2.8410    6.9670 H   0  0  0  0  0  0  0  0  0  0  0  0
   -0.6690   -4.5300    6.9420 H   0  0  0  0  0  0  0  0  0  0  0  0
   -0.0070   -1.4190    8.4960 H   0  0  0  0  0  0  0  0  0  0  0  0
    1.9650   -4.8840    7.0960 H   0  0  0  0  0  0  0  0  0  0  0  0
    1.8660   -0.9490    9.9400 H   0  0  0  0  0  0  0  0  0  0  0  0
    3.8320   -4.3940    8.5460 H   0  0  0  0  0  0  0  0  0  0  0  0
    3.7910   -2.4290    9.9720 H   0  0  0  0  0  0  0  0  0  0  0  0
  1  4  2  0  0  0  0
  1  2  1  0  0  0  0
  1  3  1  0  0  0  0
  2  5  1  0  0  0  0
  2 25  1  0  0  0  0
  2 26  1  0  0  0  0
  3  6  2  0  0  0  0
  3 27  1  0  0  0  0
  4 28  1  0  0  0  0
  4  7  1  0  0  0  0
  5  8  1  0  0  0  0
  6  9  1  0  0  0  0
  6 29  1  0  0  0  0
  7 30  1  0  0  0  0
  7  9  2  0  0  0  0
  8 10  1  0  0  0  0
  8 11  2  0  0  0  0
  9 31  1  0  0  0  0
 10 12  1  0  0  0  0
 10 32  1  0  0  0  0
 12 33  1  0  0  0  0
 12 13  1  0  0  0  0
 12 14  1  0  0  0  0
 13 35  1  0  0  0  0
 13 34  1  0  0  0  0
 13 15  1  0  0  0  0
 14 16  1  0  0  0  0
 14 17  2  0  0  0  0
 15 18  1  0  0  0  0
 18 37  1  0  0  0  0
 18 36  1  0  0  0  0
 18 19  1  0  0  0  0
 19 21  2  0  0  0  0
 19 20  1  0  0  0  0
 20 38  1  0  0  0  0
 20 22  2  0  0  0  0
 21 23  1  0  0  0  0
 21 39  1  0  0  0  0
 22 24  1  0  0  0  0
 22 40  1  0  0  0  0
 23 41  1  0  0  0  0
 23 24  2  0  0  0  0
 24 42  1  0  0  0  0
M  END
