decoy-859
 OpenBabel06062114513D

 43 44  0  0  0  0  0  0  0  0999 V2000
    0.0310   -1.1720    0.9950 C   0  0  0  0  0  0  0  0  0  0  0  0
    0.2500    0.3310    0.9200 C   0  0  0  0  0  0  0  0  0  0  0  0
    1.0190   -1.9390    0.2050 C   0  0  0  0  0  0  0  0  0  0  0  0
   -1.3790   -1.5610    0.7720 C   0  0  0  0  0  0  0  0  0  0  0  0
    0.1040    1.1580   -0.2510 C   0  0  0  0  0  0  0  0  0  0  0  0
    0.6360    0.9520    2.1420 C   0  0  0  0  0  0  0  0  0  0  0  0
    0.6020   -2.9840   -0.5530 C   0  0  0  0  0  0  0  0  0  0  0  0
    2.3610   -1.6300    0.3470 C   0  0  0  0  0  0  0  0  0  0  0  0
   -1.6600   -2.6280   -0.0190 C   0  0  0  0  0  0  0  0  0  0  0  0
   -2.3690   -0.8840    1.4640 C   0  0  0  0  0  0  0  0  0  0  0  0
    0.3560    2.5540   -0.1120 C   0  0  0  0  0  0  0  0  0  0  0  0
   -0.2610    0.7150   -1.4990 N   0  0  0  0  0  0  0  0  0  0  0  0
    0.8760    2.3280    2.2380 C   0  0  0  0  0  0  0  0  0  0  0  0
   -0.6790   -3.2760   -0.6060 N   0  0  0  0  0  0  0  0  0  0  0  0
    1.5040   -3.8300   -1.3290 C   0  0  0  0  0  0  0  0  0  0  0  0
    2.9940   -0.9790   -0.6640 O   0  0  0  0  0  0  0  0  0  0  0  0
    2.9910   -1.9170    1.5100 O   0  0  0  0  0  0  0  0  0  0  0  0
   -3.0130   -3.1180   -0.2620 C   0  0  0  0  0  0  0  0  0  0  0  0
   -3.1600   -0.0100    0.7890 O   0  0  0  0  0  0  0  0  0  0  0  0
   -2.4810   -1.0550    2.8020 O   0  0  0  0  0  0  0  0  0  0  0  0
    0.7350    3.1330    1.1060 C   0  0  0  0  0  0  0  0  0  0  0  0
   -0.3720    1.4410   -2.4540 O   0  0  0  0  0  0  0  0  0  0  0  0
   -0.5260   -0.5140   -1.8030 O   0  0  0  0  0  0  0  0  0  0  0  0
    4.3570   -0.5520   -0.6590 C   0  0  0  0  0  0  0  0  0  0  0  0
   -4.1930    0.7950    1.3590 C   0  0  0  0  0  0  0  0  0  0  0  0
    0.2170   -1.5210    2.0170 H   0  0  0  0  0  0  0  0  0  0  0  0
    0.7520    0.4040    2.9980 H   0  0  0  0  0  0  0  0  0  0  0  0
    0.2680    3.1870   -0.9110 H   0  0  0  0  0  0  0  0  0  0  0  0
    1.1520    2.7430    3.1310 H   0  0  0  0  0  0  0  0  0  0  0  0
   -0.9190   -4.0130   -1.1300 H   0  0  0  0  0  0  0  0  0  0  0  0
    2.0320   -3.2280   -2.0710 H   0  0  0  0  0  0  0  0  0  0  0  0
    0.9740   -4.6250   -1.8600 H   0  0  0  0  0  0  0  0  0  0  0  0
    2.2350   -4.3000   -0.6680 H   0  0  0  0  0  0  0  0  0  0  0  0
   -3.4830   -3.3990    0.6820 H   0  0  0  0  0  0  0  0  0  0  0  0
   -3.0270   -3.9940   -0.9150 H   0  0  0  0  0  0  0  0  0  0  0  0
   -3.6110   -2.3390   -0.7380 H   0  0  0  0  0  0  0  0  0  0  0  0
    0.9080    4.1390    1.1690 H   0  0  0  0  0  0  0  0  0  0  0  0
    4.5280    0.1560    0.1540 H   0  0  0  0  0  0  0  0  0  0  0  0
    4.5760   -0.0610   -1.6080 H   0  0  0  0  0  0  0  0  0  0  0  0
    5.0220   -1.4100   -0.5420 H   0  0  0  0  0  0  0  0  0  0  0  0
   -4.9570    0.1630    1.8140 H   0  0  0  0  0  0  0  0  0  0  0  0
   -4.6500    1.3930    0.5710 H   0  0  0  0  0  0  0  0  0  0  0  0
   -3.7760    1.4640    2.1140 H   0  0  0  0  0  0  0  0  0  0  0  0
  1 26  1  0  0  0  0
  1  2  1  0  0  0  0
  1  3  1  0  0  0  0
  1  4  1  0  0  0  0
  2  6  2  0  0  0  0
  2  5  1  0  0  0  0
  3  8  1  0  0  0  0
  3  7  2  0  0  0  0
  4 10  1  0  0  0  0
  4  9  2  0  0  0  0
  5 11  2  0  0  0  0
  5 12  1  0  0  0  0
  6 13  1  0  0  0  0
  6 27  1  0  0  0  0
  7 14  1  0  0  0  0
  7 15  1  0  0  0  0
  8 17  2  0  0  0  0
  8 16  1  0  0  0  0
  9 14  1  0  0  0  0
  9 18  1  0  0  0  0
 10 20  2  0  0  0  0
 10 19  1  0  0  0  0
 11 21  1  0  0  0  0
 11 28  1  0  0  0  0
 12 22  2  0  0  0  0
 12 23  1  0  0  0  0
 13 29  1  0  0  0  0
 13 21  2  0  0  0  0
 14 30  1  0  0  0  0
 15 33  1  0  0  0  0
 15 31  1  0  0  0  0
 15 32  1  0  0  0  0
 16 24  1  0  0  0  0
 18 34  1  0  0  0  0
 18 35  1  0  0  0  0
 18 36  1  0  0  0  0
 19 25  1  0  0  0  0
 21 37  1  0  0  0  0
 24 40  1  0  0  0  0
 24 38  1  0  0  0  0
 24 39  1  0  0  0  0
 25 41  1  0  0  0  0
 25 43  1  0  0  0  0
 25 42  1  0  0  0  0
M  END
