decoy-418
 OpenBabel06062114513D

 36 39  0  0  0  0  0  0  0  0999 V2000
   -0.0680    1.5590    0.0740 C   0  0  0  0  0  0  0  0  0  0  0  0
   -0.0550    0.1720    0.1260 C   0  0  0  0  0  0  0  0  0  0  0  0
    1.0360    2.2250    0.0750 N   0  0  0  0  0  0  0  0  0  0  0  0
   -1.1720    2.2210    0.0170 N   0  0  0  0  0  0  0  0  0  0  0  0
   -1.1290   -0.5860    0.6530 C   0  0  0  0  0  0  0  0  0  0  0  0
    1.0340   -0.5010   -0.3460 N   0  0  0  0  0  0  0  0  0  0  0  0
    1.0580    3.5130    0.0240 C   0  0  0  0  0  0  0  0  0  0  0  0
   -1.1970    3.5090   -0.0350 C   0  0  0  0  0  0  0  0  0  0  0  0
   -1.0460   -1.9910    0.6730 C   0  0  0  0  0  0  0  0  0  0  0  0
    1.1470   -1.8530   -0.3410 C   0  0  0  0  0  0  0  0  0  0  0  0
    2.2640    4.1990    0.0230 C   0  0  0  0  0  0  0  0  0  0  0  0
   -0.0700    4.1340   -0.0320 N   0  0  0  0  0  0  0  0  0  0  0  0
   -2.4050    4.1900   -0.0970 C   0  0  0  0  0  0  0  0  0  0  0  0
    0.0990   -2.6350    0.1730 C   0  0  0  0  0  0  0  0  0  0  0  0
    2.3920    5.5270    0.5010 C   0  0  0  0  0  0  0  0  0  0  0  0
    3.3820    3.5790   -0.4530 N   0  0  0  0  0  0  0  0  0  0  0  0
   -2.5610    5.5200    0.3650 C   0  0  0  0  0  0  0  0  0  0  0  0
   -3.4960    3.5620   -0.6210 N   0  0  0  0  0  0  0  0  0  0  0  0
    3.6490    6.1600    0.4700 C   0  0  0  0  0  0  0  0  0  0  0  0
    4.6080    4.1590   -0.4970 C   0  0  0  0  0  0  0  0  0  0  0  0
   -3.8170    6.1480    0.2710 C   0  0  0  0  0  0  0  0  0  0  0  0
   -4.7210    4.1370   -0.7270 C   0  0  0  0  0  0  0  0  0  0  0  0
    4.7690    5.4760   -0.0330 C   0  0  0  0  0  0  0  0  0  0  0  0
   -4.9090    5.4550   -0.2800 C   0  0  0  0  0  0  0  0  0  0  0  0
   -1.9660   -0.1310    1.0260 H   0  0  0  0  0  0  0  0  0  0  0  0
   -1.8170   -2.5440    1.0530 H   0  0  0  0  0  0  0  0  0  0  0  0
    1.9910   -2.2940   -0.7110 H   0  0  0  0  0  0  0  0  0  0  0  0
    0.1690   -3.6550    0.1840 H   0  0  0  0  0  0  0  0  0  0  0  0
    1.5870    6.0350    0.8750 H   0  0  0  0  0  0  0  0  0  0  0  0
   -1.7760    6.0340    0.7740 H   0  0  0  0  0  0  0  0  0  0  0  0
    3.7480    7.1180    0.8140 H   0  0  0  0  0  0  0  0  0  0  0  0
    5.4040    3.6370   -0.8670 H   0  0  0  0  0  0  0  0  0  0  0  0
   -3.9360    7.1070    0.6030 H   0  0  0  0  0  0  0  0  0  0  0  0
   -5.4970    3.6090   -1.1300 H   0  0  0  0  0  0  0  0  0  0  0  0
    5.6860    5.9270   -0.0590 H   0  0  0  0  0  0  0  0  0  0  0  0
   -5.8260    5.9030   -0.3520 H   0  0  0  0  0  0  0  0  0  0  0  0
  1  3  2  0  0  0  0
  1  2  1  0  0  0  0
  1  4  1  0  0  0  0
  2  5  2  0  0  0  0
  2  6  1  0  0  0  0
  3  7  2  0  0  0  0
  4  8  2  0  0  0  0
  5  9  1  0  0  0  0
  5 25  1  0  0  0  0
  6 10  2  0  0  0  0
  7 11  1  0  0  0  0
  7 12  1  0  0  0  0
  8 12  1  0  0  0  0
  8 13  1  0  0  0  0
  9 26  1  0  0  0  0
  9 14  2  0  0  0  0
 10 14  1  0  0  0  0
 10 27  1  0  0  0  0
 11 15  2  0  0  0  0
 11 16  1  0  0  0  0
 13 17  2  0  0  0  0
 13 18  1  0  0  0  0
 14 28  1  0  0  0  0
 15 29  1  0  0  0  0
 15 19  1  0  0  0  0
 16 20  2  0  0  0  0
 17 30  1  0  0  0  0
 17 21  1  0  0  0  0
 18 22  2  0  0  0  0
 19 31  1  0  0  0  0
 19 23  2  0  0  0  0
 20 23  1  0  0  0  0
 20 32  1  0  0  0  0
 21 33  1  0  0  0  0
 21 24  2  0  0  0  0
 22 24  1  0  0  0  0
 22 34  1  0  0  0  0
 23 35  1  0  0  0  0
 24 36  1  0  0  0  0
M  END
