decoy-393
 OpenBabel06062114513D

 56 59  0  0  0  0  0  0  0  0999 V2000
   -0.7650    0.6430    1.3220 C   0  0  0  0  0  0  0  0  0  0  0  0
    0.4260   -0.3540    1.5170 C   0  0  0  0  0  0  0  0  0  0  0  0
   -2.1600   -0.0390    1.1210 C   0  0  0  0  0  0  0  0  0  0  0  0
   -1.0320    1.7400    2.3710 C   0  0  0  0  0  0  0  0  0  0  0  0
    0.5650   -1.2770    0.2380 C   0  0  0  0  0  0  0  0  0  0  0  0
    1.7610    0.4040    1.7980 C   0  0  0  0  0  0  0  0  0  0  0  0
   -3.0960    1.2340    1.0070 C   0  0  0  0  0  0  0  0  0  0  0  0
   -2.0210   -0.9350   -0.1630 C   0  0  0  0  0  0  0  0  0  0  0  0
   -2.6320   -0.9180    2.3460 C   0  0  0  0  0  0  0  0  0  0  0  0
   -2.4830    2.2030    2.0860 C   0  0  0  0  0  0  0  0  0  0  0  0
    1.8480   -2.2280    0.2990 C   0  0  0  0  0  0  0  0  0  0  0  0
   -0.8150   -1.9310   -0.1560 C   0  0  0  0  0  0  0  0  0  0  0  0
    2.9900   -0.5370    1.8180 C   0  0  0  0  0  0  0  0  0  0  0  0
   -4.5570    1.0230    1.1190 C   0  0  0  0  0  0  0  0  0  0  0  0
   -2.9400    1.8900   -0.2610 O   0  0  0  0  0  0  0  0  0  0  0  0
    3.0200   -1.3350    0.5850 C   0  0  0  0  0  0  0  0  0  0  0  0
    2.0840   -3.0230   -1.0540 C   0  0  0  0  0  0  0  0  0  0  0  0
    1.7480   -3.3310    1.4170 C   0  0  0  0  0  0  0  0  0  0  0  0
   -1.1300   -3.0850    0.6170 O   0  0  0  0  0  0  0  0  0  0  0  0
   -5.3370    0.1890    0.2110 C   0  0  0  0  0  0  0  0  0  0  0  0
   -5.1960    1.6280    1.9720 O   0  0  0  0  0  0  0  0  0  0  0  0
    3.9920   -1.0880   -0.3270 C   0  0  0  0  0  0  0  0  0  0  0  0
    2.7630   -2.1610   -2.1440 C   0  0  0  0  0  0  0  0  0  0  0  0
   -5.1700    0.5660   -1.1510 O   0  0  0  0  0  0  0  0  0  0  0  0
    3.9770   -1.5930   -1.5880 C   0  0  0  0  0  0  0  0  0  0  0  0
    5.0100   -1.6140   -2.2440 O   0  0  0  0  0  0  0  0  0  0  0  0
   -0.5090    1.1920    0.4060 H   0  0  0  0  0  0  0  0  0  0  0  0
    0.2260   -0.9660    2.3950 H   0  0  0  0  0  0  0  0  0  0  0  0
    0.7650   -0.5860   -0.5890 H   0  0  0  0  0  0  0  0  0  0  0  0
   -0.9450    1.3260    3.3800 H   0  0  0  0  0  0  0  0  0  0  0  0
   -0.3250    2.5690    2.2720 H   0  0  0  0  0  0  0  0  0  0  0  0
    1.9200    1.1690    1.0320 H   0  0  0  0  0  0  0  0  0  0  0  0
    1.7000    0.9110    2.7650 H   0  0  0  0  0  0  0  0  0  0  0  0
   -2.9350   -1.5060   -0.3290 H   0  0  0  0  0  0  0  0  0  0  0  0
   -1.9020   -0.2890   -1.0370 H   0  0  0  0  0  0  0  0  0  0  0  0
   -1.8910   -1.6450    2.6600 H   0  0  0  0  0  0  0  0  0  0  0  0
   -3.5370   -1.4720    2.0950 H   0  0  0  0  0  0  0  0  0  0  0  0
   -2.8580   -0.3090    3.2210 H   0  0  0  0  0  0  0  0  0  0  0  0
   -3.0360    2.1730    3.0280 H   0  0  0  0  0  0  0  0  0  0  0  0
   -2.4920    3.2400    1.7360 H   0  0  0  0  0  0  0  0  0  0  0  0
   -0.7430   -2.2940   -1.1840 H   0  0  0  0  0  0  0  0  0  0  0  0
    3.8850    0.0810    1.9500 H   0  0  0  0  0  0  0  0  0  0  0  0
    2.9440   -1.1910    2.6910 H   0  0  0  0  0  0  0  0  0  0  0  0
   -2.0090    2.1860   -0.3130 H   0  0  0  0  0  0  0  0  0  0  0  0
    2.7500   -3.8760   -0.8780 H   0  0  0  0  0  0  0  0  0  0  0  0
    1.1590   -3.4450   -1.4470 H   0  0  0  0  0  0  0  0  0  0  0  0
    1.3840   -2.9380    2.3640 H   0  0  0  0  0  0  0  0  0  0  0  0
    2.7290   -3.7780    1.6020 H   0  0  0  0  0  0  0  0  0  0  0  0
    1.0790   -4.1410    1.1220 H   0  0  0  0  0  0  0  0  0  0  0  0
   -0.9390   -2.8420    1.5440 H   0  0  0  0  0  0  0  0  0  0  0  0
   -5.0520   -0.8540    0.3220 H   0  0  0  0  0  0  0  0  0  0  0  0
   -6.4060    0.2510    0.4340 H   0  0  0  0  0  0  0  0  0  0  0  0
    4.7430   -0.4780   -0.0910 H   0  0  0  0  0  0  0  0  0  0  0  0
    2.9780   -2.7780   -3.0230 H   0  0  0  0  0  0  0  0  0  0  0  0
    2.0950   -1.3540   -2.4550 H   0  0  0  0  0  0  0  0  0  0  0  0
   -5.4960    1.4890   -1.2010 H   0  0  0  0  0  0  0  0  0  0  0  0
  1  3  1  0  0  0  0
  1  2  1  0  0  0  0
  1  4  1  0  0  0  0
  1 27  1  0  0  0  0
  2  5  1  0  0  0  0
  2  6  1  0  0  0  0
  2 28  1  0  0  0  0
  3  7  1  0  0  0  0
  3  9  1  0  0  0  0
  3  8  1  0  0  0  0
  4 30  1  0  0  0  0
  4 10  1  0  0  0  0
  4 31  1  0  0  0  0
  5 12  1  0  0  0  0
  5 11  1  0  0  0  0
  5 29  1  0  0  0  0
  6 13  1  0  0  0  0
  6 33  1  0  0  0  0
  6 32  1  0  0  0  0
  7 15  1  0  0  0  0
  7 14  1  0  0  0  0
  7 10  1  0  0  0  0
  8 12  1  0  0  0  0
  8 34  1  0  0  0  0
  8 35  1  0  0  0  0
  9 36  1  0  0  0  0
  9 38  1  0  0  0  0
  9 37  1  0  0  0  0
 10 39  1  0  0  0  0
 10 40  1  0  0  0  0
 11 16  1  0  0  0  0
 11 18  1  0  0  0  0
 11 17  1  0  0  0  0
 12 41  1  0  0  0  0
 12 19  1  0  0  0  0
 13 42  1  0  0  0  0
 13 43  1  0  0  0  0
 13 16  1  0  0  0  0
 14 21  2  0  0  0  0
 14 20  1  0  0  0  0
 15 44  1  0  0  0  0
 16 22  2  0  0  0  0
 17 45  1  0  0  0  0
 17 23  1  0  0  0  0
 17 46  1  0  0  0  0
 18 48  1  0  0  0  0
 18 47  1  0  0  0  0
 18 49  1  0  0  0  0
 19 50  1  0  0  0  0
 20 51  1  0  0  0  0
 20 52  1  0  0  0  0
 20 24  1  0  0  0  0
 22 53  1  0  0  0  0
 22 25  1  0  0  0  0
 23 25  1  0  0  0  0
 23 54  1  0  0  0  0
 23 55  1  0  0  0  0
 24 56  1  0  0  0  0
 25 26  2  0  0  0  0
M  END
