decoy-19
 OpenBabel06062114503D

 45 47  0  0  0  0  0  0  0  0999 V2000
    1.6900    1.1970   -1.4760 C   0  0  0  0  0  0  0  0  0  0  0  0
    2.2550    2.1290   -0.3560 C   0  0  0  0  0  0  0  0  0  0  0  0
    2.8120    0.4040   -2.2180 C   0  0  0  0  0  0  0  0  0  0  0  0
    0.7720    0.2620   -0.8840 O   0  0  0  0  0  0  0  0  0  0  0  0
    3.4950    1.5240    0.3780 C   0  0  0  0  0  0  0  0  0  0  0  0
    3.9920   -0.0130   -1.2800 C   0  0  0  0  0  0  0  0  0  0  0  0
   -0.5580    0.0910   -1.1110 C   0  0  0  0  0  0  0  0  0  0  0  0
    4.5170    1.2350   -0.6640 *   0  0  0  0  0  0  0  0  0  0  0  0
    3.2200    0.1460    1.0370 C   0  0  0  0  0  0  0  0  0  0  0  0
    3.5520   -0.8810   -0.0710 C   0  0  0  0  0  0  0  0  0  0  0  0
   -1.2800   -0.9630   -0.3600 C   0  0  0  0  0  0  0  0  0  0  0  0
   -1.2070    0.8630   -2.0140 O   0  0  0  0  0  0  0  0  0  0  0  0
    5.9320    1.1880   -0.1960 C   0  0  0  0  0  0  0  0  0  0  0  0
   -2.2600   -0.3590    0.5990 C   0  0  0  0  0  0  0  0  0  0  0  0
   -1.9310   -2.0120   -1.3050 C   0  0  0  0  0  0  0  0  0  0  0  0
   -3.4110    0.3380    0.1490 C   0  0  0  0  0  0  0  0  0  0  0  0
   -2.0570   -0.4690    1.9980 C   0  0  0  0  0  0  0  0  0  0  0  0
   -0.9480   -2.6940   -2.0810 O   0  0  0  0  0  0  0  0  0  0  0  0
   -4.3220    0.9030    1.0610 C   0  0  0  0  0  0  0  0  0  0  0  0
   -2.9660    0.0960    2.9120 C   0  0  0  0  0  0  0  0  0  0  0  0
   -4.0990    0.7820    2.4430 C   0  0  0  0  0  0  0  0  0  0  0  0
    3.8520    2.2470    1.1190 H   0  0  0  0  0  0  0  0  0  0  0  0
    4.7500   -0.5310   -1.8770 H   0  0  0  0  0  0  0  0  0  0  0  0
    1.1600    1.8150   -2.2070 H   0  0  0  0  0  0  0  0  0  0  0  0
    2.5580    3.0770   -0.8100 H   0  0  0  0  0  0  0  0  0  0  0  0
    1.4700    2.3560    0.3710 H   0  0  0  0  0  0  0  0  0  0  0  0
    2.3880   -0.4840   -2.6940 H   0  0  0  0  0  0  0  0  0  0  0  0
    3.2180    1.0340   -3.0140 H   0  0  0  0  0  0  0  0  0  0  0  0
    4.4780    1.9790   -1.3650 H   0  0  0  0  0  0  0  0  0  0  0  0
    3.8840    0.0030    1.8940 H   0  0  0  0  0  0  0  0  0  0  0  0
    2.1880    0.0540    1.3850 H   0  0  0  0  0  0  0  0  0  0  0  0
    2.6970   -1.5170   -0.3100 H   0  0  0  0  0  0  0  0  0  0  0  0
    4.3780   -1.5240    0.2470 H   0  0  0  0  0  0  0  0  0  0  0  0
   -0.5270   -1.5170    0.2120 H   0  0  0  0  0  0  0  0  0  0  0  0
    6.2130    2.1550    0.2230 H   0  0  0  0  0  0  0  0  0  0  0  0
    6.5920    0.9840   -1.0410 H   0  0  0  0  0  0  0  0  0  0  0  0
    6.0890    0.4200    0.5640 H   0  0  0  0  0  0  0  0  0  0  0  0
   -2.4630   -2.7610   -0.7140 H   0  0  0  0  0  0  0  0  0  0  0  0
   -2.6430   -1.5440   -1.9870 H   0  0  0  0  0  0  0  0  0  0  0  0
   -3.5980    0.4390   -0.8500 H   0  0  0  0  0  0  0  0  0  0  0  0
   -1.2390   -0.9600    2.3670 H   0  0  0  0  0  0  0  0  0  0  0  0
   -0.5310   -2.0000   -2.6330 H   0  0  0  0  0  0  0  0  0  0  0  0
   -5.1460    1.4020    0.7180 H   0  0  0  0  0  0  0  0  0  0  0  0
   -2.8030    0.0080    3.9170 H   0  0  0  0  0  0  0  0  0  0  0  0
   -4.7600    1.1930    3.1060 H   0  0  0  0  0  0  0  0  0  0  0  0
  1 24  1  0  0  0  0
  1  4  1  0  0  0  0
  1  2  1  0  0  0  0
  1  3  1  0  0  0  0
  2 26  1  0  0  0  0
  2  5  1  0  0  0  0
  2 25  1  0  0  0  0
  3  6  1  0  0  0  0
  3 27  1  0  0  0  0
  3 28  1  0  0  0  0
  4  7  1  0  0  0  0
  5  9  1  0  0  0  0
  5 22  1  0  0  0  0
  5  8  1  0  0  0  0
  6 23  1  0  0  0  0
  6  8  1  0  0  0  0
  6 10  1  0  0  0  0
  7 11  1  0  0  0  0
  7 12  2  0  0  0  0
  8 13  1  0  0  0  0
  8 29  1  0  0  0  0
  9 31  1  0  0  0  0
  9 30  1  0  0  0  0
  9 10  1  0  0  0  0
 10 33  1  0  0  0  0
 10 32  1  0  0  0  0
 11 34  1  0  0  0  0
 11 14  1  0  0  0  0
 11 15  1  0  0  0  0
 13 35  1  0  0  0  0
 13 37  1  0  0  0  0
 13 36  1  0  0  0  0
 14 17  2  0  0  0  0
 14 16  1  0  0  0  0
 15 38  1  0  0  0  0
 15 18  1  0  0  0  0
 15 39  1  0  0  0  0
 16 19  2  0  0  0  0
 16 40  1  0  0  0  0
 17 41  1  0  0  0  0
 17 20  1  0  0  0  0
 18 42  1  0  0  0  0
 19 21  1  0  0  0  0
 19 43  1  0  0  0  0
 20 44  1  0  0  0  0
 20 21  2  0  0  0  0
 21 45  1  0  0  0  0
M  END
