decoy-579
 OpenBabel06062114513D

 43 46  0  0  0  0  0  0  0  0999 V2000
    0.0050    1.3670    0.0430 C   0  0  0  0  0  0  0  0  0  0  0  0
   -0.0030   -0.0520    0.0130 C   0  0  0  0  0  0  0  0  0  0  0  0
    1.2170    2.1120    0.0450 C   0  0  0  0  0  0  0  0  0  0  0  0
   -1.2280    2.0580    0.0530 C   0  0  0  0  0  0  0  0  0  0  0  0
   -1.2290   -0.7640   -0.0200 C   0  0  0  0  0  0  0  0  0  0  0  0
    1.1660   -0.7510    0.0090 O   0  0  0  0  0  0  0  0  0  0  0  0
    1.4910    3.0420    1.0770 C   0  0  0  0  0  0  0  0  0  0  0  0
    2.1670    1.9530   -0.9930 C   0  0  0  0  0  0  0  0  0  0  0  0
   -2.4630    1.3730    0.0200 C   0  0  0  0  0  0  0  0  0  0  0  0
   -1.2670   -2.1870   -0.0470 C   0  0  0  0  0  0  0  0  0  0  0  0
   -2.4420   -0.0400   -0.0200 C   0  0  0  0  0  0  0  0  0  0  0  0
    2.6870    3.7850    1.0760 C   0  0  0  0  0  0  0  0  0  0  0  0
    3.3610    2.6970   -0.9940 C   0  0  0  0  0  0  0  0  0  0  0  0
   -3.6980    2.0870    0.0250 C   0  0  0  0  0  0  0  0  0  0  0  0
   -1.9420   -2.8710   -1.0860 C   0  0  0  0  0  0  0  0  0  0  0  0
   -0.6450   -2.9480    0.9730 C   0  0  0  0  0  0  0  0  0  0  0  0
    3.6220    3.6120    0.0410 C   0  0  0  0  0  0  0  0  0  0  0  0
   -3.9060    3.1880   -0.8420 C   0  0  0  0  0  0  0  0  0  0  0  0
   -4.7510    1.7140    0.8980 C   0  0  0  0  0  0  0  0  0  0  0  0
   -1.9860   -4.2780   -1.1110 C   0  0  0  0  0  0  0  0  0  0  0  0
   -0.6900   -4.3540    0.9490 C   0  0  0  0  0  0  0  0  0  0  0  0
   -5.1240    3.8930   -0.8370 C   0  0  0  0  0  0  0  0  0  0  0  0
   -5.9690    2.4180    0.9040 C   0  0  0  0  0  0  0  0  0  0  0  0
   -1.3600   -5.0200   -0.0930 C   0  0  0  0  0  0  0  0  0  0  0  0
   -6.1560    3.5080    0.0360 C   0  0  0  0  0  0  0  0  0  0  0  0
   -1.2260    3.0820    0.0820 H   0  0  0  0  0  0  0  0  0  0  0  0
    1.8430   -0.1540    0.3890 H   0  0  0  0  0  0  0  0  0  0  0  0
    0.8270    3.1780    1.8440 H   0  0  0  0  0  0  0  0  0  0  0  0
    1.9900    1.3010   -1.7620 H   0  0  0  0  0  0  0  0  0  0  0  0
   -3.3290   -0.5520   -0.0500 H   0  0  0  0  0  0  0  0  0  0  0  0
    2.8760    4.4510    1.8290 H   0  0  0  0  0  0  0  0  0  0  0  0
    4.0390    2.5740   -1.7500 H   0  0  0  0  0  0  0  0  0  0  0  0
   -2.3980   -2.3500   -1.8400 H   0  0  0  0  0  0  0  0  0  0  0  0
   -0.1650   -2.4830    1.7480 H   0  0  0  0  0  0  0  0  0  0  0  0
    4.4900    4.1530    0.0390 H   0  0  0  0  0  0  0  0  0  0  0  0
   -3.1760    3.4790   -1.4970 H   0  0  0  0  0  0  0  0  0  0  0  0
   -4.6340    0.9330    1.5490 H   0  0  0  0  0  0  0  0  0  0  0  0
   -2.4730   -4.7610   -1.8690 H   0  0  0  0  0  0  0  0  0  0  0  0
   -0.2390   -4.8930    1.6910 H   0  0  0  0  0  0  0  0  0  0  0  0
   -5.2610    4.6830   -1.4720 H   0  0  0  0  0  0  0  0  0  0  0  0
   -6.7180    2.1400    1.5420 H   0  0  0  0  0  0  0  0  0  0  0  0
   -1.3930   -6.0410   -0.1110 H   0  0  0  0  0  0  0  0  0  0  0  0
   -7.0410    4.0200    0.0400 H   0  0  0  0  0  0  0  0  0  0  0  0
  1  3  1  0  0  0  0
  1  4  2  0  0  0  0
  1  2  1  0  0  0  0
  2  5  2  0  0  0  0
  2  6  1  0  0  0  0
  3  7  2  0  0  0  0
  3  8  1  0  0  0  0
  4 26  1  0  0  0  0
  4  9  1  0  0  0  0
  5 10  1  0  0  0  0
  5 11  1  0  0  0  0
  6 27  1  0  0  0  0
  7 28  1  0  0  0  0
  7 12  1  0  0  0  0
  8 13  2  0  0  0  0
  8 29  1  0  0  0  0
  9 14  1  0  0  0  0
  9 11  2  0  0  0  0
 10 16  2  0  0  0  0
 10 15  1  0  0  0  0
 11 30  1  0  0  0  0
 12 31  1  0  0  0  0
 12 17  2  0  0  0  0
 13 17  1  0  0  0  0
 13 32  1  0  0  0  0
 14 19  2  0  0  0  0
 14 18  1  0  0  0  0
 15 20  2  0  0  0  0
 15 33  1  0  0  0  0
 16 34  1  0  0  0  0
 16 21  1  0  0  0  0
 17 35  1  0  0  0  0
 18 22  2  0  0  0  0
 18 36  1  0  0  0  0
 19 23  1  0  0  0  0
 19 37  1  0  0  0  0
 20 24  1  0  0  0  0
 20 38  1  0  0  0  0
 21 39  1  0  0  0  0
 21 24  2  0  0  0  0
 22 25  1  0  0  0  0
 22 40  1  0  0  0  0
 23 41  1  0  0  0  0
 23 25  2  0  0  0  0
 24 42  1  0  0  0  0
 25 43  1  0  0  0  0
M  END
