decoy-1044
 OpenBabel06062114513D

 27 28  0  0  0  0  0  0  0  0999 V2000
    0.7050    1.4020   -0.4830 C   0  0  0  0  0  0  0  0  0  0  0  0
    0.1950    0.1290   -0.5250 O   0  0  0  0  0  0  0  0  0  0  0  0
    2.0820    1.6300   -0.7250 C   0  0  0  0  0  0  0  0  0  0  0  0
   -0.1120    2.4850   -0.0840 C   0  0  0  0  0  0  0  0  0  0  0  0
   -0.6150   -0.2460   -1.8060 P   0  0  0  0  0  0  0  0  0  0  0  0
    2.6080    2.9350   -0.6340 C   0  0  0  0  0  0  0  0  0  0  0  0
    3.1280    0.3520   -1.1050 Cl  0  0  0  0  0  0  0  0  0  0  0  0
    0.4170    3.7850    0.0050 C   0  0  0  0  0  0  0  0  0  0  0  0
   -0.9930   -1.7460   -1.5940 O   0  0  0  0  0  0  0  0  0  0  0  0
   -1.8190    0.5460   -1.8580 O   0  0  0  0  0  0  0  0  0  0  0  0
    0.3740    0.0280   -3.3880 Cl  0  0  0  0  0  0  0  0  0  0  0  0
    1.7750    4.0110   -0.2770 C   0  0  0  0  0  0  0  0  0  0  0  0
   -1.6720   -2.3510   -2.6210 C   0  0  0  0  0  0  0  0  0  0  0  0
   -1.0020   -3.2380   -3.4980 C   0  0  0  0  0  0  0  0  0  0  0  0
   -3.0700   -2.1860   -2.7460 C   0  0  0  0  0  0  0  0  0  0  0  0
   -1.7160   -3.8910   -4.5230 C   0  0  0  0  0  0  0  0  0  0  0  0
    0.6560   -3.5520   -3.3290 Cl  0  0  0  0  0  0  0  0  0  0  0  0
   -3.7790   -2.8400   -3.7690 C   0  0  0  0  0  0  0  0  0  0  0  0
   -3.1010   -3.6870   -4.6620 C   0  0  0  0  0  0  0  0  0  0  0  0
   -1.0970    2.3270    0.1410 H   0  0  0  0  0  0  0  0  0  0  0  0
    3.5990    3.1070   -0.8170 H   0  0  0  0  0  0  0  0  0  0  0  0
   -0.1850    4.5640    0.2830 H   0  0  0  0  0  0  0  0  0  0  0  0
    2.1610    4.9550   -0.2080 H   0  0  0  0  0  0  0  0  0  0  0  0
   -3.5760   -1.5870   -2.0900 H   0  0  0  0  0  0  0  0  0  0  0  0
   -1.2360   -4.5260   -5.1650 H   0  0  0  0  0  0  0  0  0  0  0  0
   -4.7890   -2.7060   -3.8590 H   0  0  0  0  0  0  0  0  0  0  0  0
   -3.6160   -4.1660   -5.4040 H   0  0  0  0  0  0  0  0  0  0  0  0
  1  4  2  0  0  0  0
  1  2  1  0  0  0  0
  1  3  1  0  0  0  0
  2  5  1  0  0  0  0
  3  6  2  0  0  0  0
  3  7  1  0  0  0  0
  4  8  1  0  0  0  0
  4 20  1  0  0  0  0
  5  9  1  0  0  0  0
  5 10  2  0  0  0  0
  5 11  1  0  0  0  0
  6 12  1  0  0  0  0
  6 21  1  0  0  0  0
  8 22  1  0  0  0  0
  8 12  2  0  0  0  0
  9 13  1  0  0  0  0
 12 23  1  0  0  0  0
 13 14  2  0  0  0  0
 13 15  1  0  0  0  0
 14 17  1  0  0  0  0
 14 16  1  0  0  0  0
 15 24  1  0  0  0  0
 15 18  2  0  0  0  0
 16 19  2  0  0  0  0
 16 25  1  0  0  0  0
 18 19  1  0  0  0  0
 18 26  1  0  0  0  0
 19 27  1  0  0  0  0
M  END
