decoy-733
 OpenBabel06062114513D

 46 47  0  0  0  0  0  0  0  0999 V2000
   -0.4080    1.3590   -0.1350 C   0  0  0  0  0  0  0  0  0  0  0  0
    0.0910   -0.1420   -0.1560 C   0  0  0  0  0  0  0  0  0  0  0  0
    0.7740    2.1550    0.4900 C   0  0  0  0  0  0  0  0  0  0  0  0
   -0.9410    1.8980   -1.3920 C   0  0  0  0  0  0  0  0  0  0  0  0
    1.4830   -0.0870    0.4050 *   0  0  0  0  0  0  0  0  0  0  0  0
   -0.7480   -1.0120    0.8360 C   0  0  0  0  0  0  0  0  0  0  0  0
    0.0260   -0.8500   -1.5570 C   0  0  0  0  0  0  0  0  0  0  0  0
    2.0430    1.2860    0.2890 C   0  0  0  0  0  0  0  0  0  0  0  0
   -2.1510    1.5190   -1.7830 N   0  0  0  0  0  0  0  0  0  0  0  0
   -0.2940    2.6820   -2.0760 O   0  0  0  0  0  0  0  0  0  0  0  0
    2.3310   -1.0680   -0.0200 O   0  0  0  0  0  0  0  0  0  0  0  0
    2.7410    1.5870   -1.0790 C   0  0  0  0  0  0  0  0  0  0  0  0
    3.0720    1.5270    1.4370 C   0  0  0  0  0  0  0  0  0  0  0  0
   -2.8090    1.9310   -2.9830 C   0  0  0  0  0  0  0  0  0  0  0  0
   -4.1960    1.2530   -3.1020 C   0  0  0  0  0  0  0  0  0  0  0  0
   -4.8770    1.6170   -4.3200 N   0  0  0  0  0  0  0  0  0  0  0  0
   -5.1000    0.8340   -5.3640 C   0  0  0  0  0  0  0  0  0  0  0  0
   -5.4090    2.7980   -4.5930 C   0  0  0  0  0  0  0  0  0  0  0  0
   -5.7650    1.5300   -6.2860 C   0  0  0  0  0  0  0  0  0  0  0  0
   -4.7580   -0.3320   -5.5010 O   0  0  0  0  0  0  0  0  0  0  0  0
   -5.9580    2.7520   -5.8050 C   0  0  0  0  0  0  0  0  0  0  0  0
   -5.4330    3.7810   -3.8650 O   0  0  0  0  0  0  0  0  0  0  0  0
   -1.2370    1.4690    0.5760 H   0  0  0  0  0  0  0  0  0  0  0  0
    0.8950    3.1600    0.0790 H   0  0  0  0  0  0  0  0  0  0  0  0
    0.5780    2.2770    1.5610 H   0  0  0  0  0  0  0  0  0  0  0  0
   -0.3570   -2.0300    0.8880 H   0  0  0  0  0  0  0  0  0  0  0  0
   -0.7190   -0.5900    1.8440 H   0  0  0  0  0  0  0  0  0  0  0  0
   -1.7920   -1.0590    0.5180 H   0  0  0  0  0  0  0  0  0  0  0  0
    0.4150   -1.8690   -1.5020 H   0  0  0  0  0  0  0  0  0  0  0  0
   -1.0040   -0.9150   -1.9130 H   0  0  0  0  0  0  0  0  0  0  0  0
    0.6100   -0.3110   -2.3010 H   0  0  0  0  0  0  0  0  0  0  0  0
   -2.6270    0.8990   -1.2080 H   0  0  0  0  0  0  0  0  0  0  0  0
    3.1280   -0.9810    0.5420 H   0  0  0  0  0  0  0  0  0  0  0  0
    3.5980    0.9280   -1.2280 H   0  0  0  0  0  0  0  0  0  0  0  0
    2.0610    1.4490   -1.9160 H   0  0  0  0  0  0  0  0  0  0  0  0
    3.0970    2.6190   -1.1050 H   0  0  0  0  0  0  0  0  0  0  0  0
    3.9590    0.9060    1.2980 H   0  0  0  0  0  0  0  0  0  0  0  0
    3.3840    2.5740    1.4580 H   0  0  0  0  0  0  0  0  0  0  0  0
    2.6380    1.2800    2.4080 H   0  0  0  0  0  0  0  0  0  0  0  0
   -2.9280    3.0170   -2.9730 H   0  0  0  0  0  0  0  0  0  0  0  0
   -2.1990    1.6510   -3.8460 H   0  0  0  0  0  0  0  0  0  0  0  0
   -4.0530    0.1690   -3.0520 H   0  0  0  0  0  0  0  0  0  0  0  0
   -4.8170    1.5340   -2.2470 H   0  0  0  0  0  0  0  0  0  0  0  0
   -6.0660    1.1980   -7.1730 H   0  0  0  0  0  0  0  0  0  0  0  0
   -6.4290    3.4930   -6.2690 H   0  0  0  0  0  0  0  0  0  0  0  0
    1.3770   -0.2450    1.4100 H   0  0  0  0  0  0  0  0  0  0  0  0
  1  3  1  0  0  0  0
  1 23  1  0  0  0  0
  1  2  1  0  0  0  0
  1  4  1  0  0  0  0
  2  5  1  0  0  0  0
  2  6  1  0  0  0  0
  2  7  1  0  0  0  0
  3 25  1  0  0  0  0
  3  8  1  0  0  0  0
  3 24  1  0  0  0  0
  4  9  1  0  0  0  0
  4 10  2  0  0  0  0
  5 46  1  0  0  0  0
  5  8  1  0  0  0  0
  5 11  1  0  0  0  0
  6 26  1  0  0  0  0
  6 27  1  0  0  0  0
  6 28  1  0  0  0  0
  7 29  1  0  0  0  0
  7 30  1  0  0  0  0
  7 31  1  0  0  0  0
  8 13  1  0  0  0  0
  8 12  1  0  0  0  0
  9 32  1  0  0  0  0
  9 14  1  0  0  0  0
 11 33  1  0  0  0  0
 12 34  1  0  0  0  0
 12 35  1  0  0  0  0
 12 36  1  0  0  0  0
 13 38  1  0  0  0  0
 13 39  1  0  0  0  0
 13 37  1  0  0  0  0
 14 40  1  0  0  0  0
 14 15  1  0  0  0  0
 14 41  1  0  0  0  0
 15 42  1  0  0  0  0
 15 43  1  0  0  0  0
 15 16  1  0  0  0  0
 16 17  1  0  0  0  0
 16 18  1  0  0  0  0
 17 19  1  0  0  0  0
 17 20  2  0  0  0  0
 18 22  2  0  0  0  0
 18 21  1  0  0  0  0
 19 21  2  0  0  0  0
 19 44  1  0  0  0  0
 21 45  1  0  0  0  0
M  END
