decoy-332
 OpenBabel06062114513D

 49 52  0  0  0  0  0  0  0  0999 V2000
   -2.3340    0.7220   -1.5300 C   0  0  0  0  0  0  0  0  0  0  0  0
   -0.8260    0.5410   -1.1660 C   0  0  0  0  0  0  0  0  0  0  0  0
   -3.2280    1.0730   -0.2950 C   0  0  0  0  0  0  0  0  0  0  0  0
   -2.7550    1.7530   -2.6000 C   0  0  0  0  0  0  0  0  0  0  0  0
   -0.6560   -0.6380   -0.1340 C   0  0  0  0  0  0  0  0  0  0  0  0
    0.0670    0.2660   -2.4040 C   0  0  0  0  0  0  0  0  0  0  0  0
   -4.6270    1.2730   -0.9980 C   0  0  0  0  0  0  0  0  0  0  0  0
   -3.0810   -0.1080    0.7300 C   0  0  0  0  0  0  0  0  0  0  0  0
   -2.8350    2.4150    0.4430 C   0  0  0  0  0  0  0  0  0  0  0  0
   -4.2620    2.0120   -2.3290 C   0  0  0  0  0  0  0  0  0  0  0  0
    0.7970   -0.9030    0.1850 C   0  0  0  0  0  0  0  0  0  0  0  0
   -1.5990   -0.4210    1.1040 C   0  0  0  0  0  0  0  0  0  0  0  0
    1.5580    0.2150   -1.9910 C   0  0  0  0  0  0  0  0  0  0  0  0
   -5.3160    0.1040   -1.2680 C   0  0  0  0  0  0  0  0  0  0  0  0
   -5.5430    2.0590   -0.2290 O   0  0  0  0  0  0  0  0  0  0  0  0
    1.8330   -0.4940   -0.7090 C   0  0  0  0  0  0  0  0  0  0  0  0
    1.1740   -1.6570    1.3280 C   0  0  0  0  0  0  0  0  0  0  0  0
   -5.9330   -0.8950   -1.4900 C   0  0  0  0  0  0  0  0  0  0  0  0
    3.1880   -0.7430   -0.3850 C   0  0  0  0  0  0  0  0  0  0  0  0
    2.5210   -1.9140    1.6300 C   0  0  0  0  0  0  0  0  0  0  0  0
    3.5380   -1.4320    0.7900 C   0  0  0  0  0  0  0  0  0  0  0  0
    4.8500   -1.7000    1.0700 O   0  0  0  0  0  0  0  0  0  0  0  0
    5.4770   -0.6800    1.8650 C   0  0  0  0  0  0  0  0  0  0  0  0
   -2.6540   -0.2520   -1.9280 H   0  0  0  0  0  0  0  0  0  0  0  0
   -0.4610    1.4690   -0.7170 H   0  0  0  0  0  0  0  0  0  0  0  0
   -1.0090   -1.5560   -0.6180 H   0  0  0  0  0  0  0  0  0  0  0  0
   -2.1760    2.6740   -2.4920 H   0  0  0  0  0  0  0  0  0  0  0  0
   -2.5990    1.3610   -3.6090 H   0  0  0  0  0  0  0  0  0  0  0  0
   -0.2200   -0.6840   -2.8650 H   0  0  0  0  0  0  0  0  0  0  0  0
   -0.0600    1.0520   -3.1520 H   0  0  0  0  0  0  0  0  0  0  0  0
   -3.6460    0.1160    1.6400 H   0  0  0  0  0  0  0  0  0  0  0  0
   -3.5060   -1.0230    0.3110 H   0  0  0  0  0  0  0  0  0  0  0  0
   -1.8220    2.4010    0.8380 H   0  0  0  0  0  0  0  0  0  0  0  0
   -3.5040    2.5890    1.2880 H   0  0  0  0  0  0  0  0  0  0  0  0
   -2.9090    3.2800   -0.2160 H   0  0  0  0  0  0  0  0  0  0  0  0
   -4.4240    3.0880   -2.2200 H   0  0  0  0  0  0  0  0  0  0  0  0
   -4.8650    1.6830   -3.1820 H   0  0  0  0  0  0  0  0  0  0  0  0
   -1.6280   -1.3280    1.7120 H   0  0  0  0  0  0  0  0  0  0  0  0
   -1.1940    0.3730    1.7350 H   0  0  0  0  0  0  0  0  0  0  0  0
    2.1100   -0.2690   -2.8020 H   0  0  0  0  0  0  0  0  0  0  0  0
    1.9330    1.2380   -1.8960 H   0  0  0  0  0  0  0  0  0  0  0  0
   -5.6780    1.5580    0.6030 H   0  0  0  0  0  0  0  0  0  0  0  0
    0.4740   -2.0400    1.9620 H   0  0  0  0  0  0  0  0  0  0  0  0
   -6.4200   -1.6600   -1.6480 H   0  0  0  0  0  0  0  0  0  0  0  0
    3.9340   -0.4320   -1.0120 H   0  0  0  0  0  0  0  0  0  0  0  0
    2.7620   -2.4530    2.4650 H   0  0  0  0  0  0  0  0  0  0  0  0
    5.4770    0.2830    1.3490 H   0  0  0  0  0  0  0  0  0  0  0  0
    6.5130   -0.9730    2.0380 H   0  0  0  0  0  0  0  0  0  0  0  0
    4.9860   -0.5750    2.8360 H   0  0  0  0  0  0  0  0  0  0  0  0
  1  2  1  0  0  0  0
  1  3  1  0  0  0  0
  1  4  1  0  0  0  0
  1 24  1  0  0  0  0
  2 25  1  0  0  0  0
  2  5  1  0  0  0  0
  2  6  1  0  0  0  0
  3  9  1  0  0  0  0
  3  8  1  0  0  0  0
  3  7  1  0  0  0  0
  4 27  1  0  0  0  0
  4 10  1  0  0  0  0
  4 28  1  0  0  0  0
  5 26  1  0  0  0  0
  5 11  1  0  0  0  0
  5 12  1  0  0  0  0
  6 13  1  0  0  0  0
  6 29  1  0  0  0  0
  6 30  1  0  0  0  0
  7 15  1  0  0  0  0
  7 10  1  0  0  0  0
  7 14  1  0  0  0  0
  8 12  1  0  0  0  0
  8 31  1  0  0  0  0
  8 32  1  0  0  0  0
  9 33  1  0  0  0  0
  9 34  1  0  0  0  0
  9 35  1  0  0  0  0
 10 36  1  0  0  0  0
 10 37  1  0  0  0  0
 11 17  2  0  0  0  0
 11 16  1  0  0  0  0
 12 38  1  0  0  0  0
 12 39  1  0  0  0  0
 13 41  1  0  0  0  0
 13 16  1  0  0  0  0
 13 40  1  0  0  0  0
 14 18  3  0  0  0  0
 15 42  1  0  0  0  0
 16 19  2  0  0  0  0
 17 20  1  0  0  0  0
 17 43  1  0  0  0  0
 18 44  1  0  0  0  0
 19 21  1  0  0  0  0
 19 45  1  0  0  0  0
 20 46  1  0  0  0  0
 20 21  2  0  0  0  0
 21 22  1  0  0  0  0
 22 23  1  0  0  0  0
 23 48  1  0  0  0  0
 23 49  1  0  0  0  0
 23 47  1  0  0  0  0
M  END
