decoy-539
 OpenBabel06062114513D

 78 82  0  0  0  0  0  0  0  0999 V2000
   -1.0910    2.3450    2.3620 C   0  0  0  0  0  0  0  0  0  0  0  0
   -0.9250    0.9400    2.5990 C   0  0  0  0  0  0  0  0  0  0  0  0
    0.0260    3.1470    1.9880 C   0  0  0  0  0  0  0  0  0  0  0  0
   -2.3690    2.9020    2.5640 C   0  0  0  0  0  0  0  0  0  0  0  0
    0.3530    0.3310    2.4270 C   0  0  0  0  0  0  0  0  0  0  0  0
   -2.0460    0.2040    3.0320 C   0  0  0  0  0  0  0  0  0  0  0  0
   -0.1290    4.4940    1.8310 N   0  0  0  0  0  0  0  0  0  0  0  0
    1.2680    2.5090    1.7760 C   0  0  0  0  0  0  0  0  0  0  0  0
   -3.2710    2.2590    3.4110 C   0  0  0  0  0  0  0  0  0  0  0  0
   -2.8320    3.6570    1.7180 O   0  0  0  0  0  0  0  0  0  0  0  0
    0.5170   -0.9860    2.7430 N   0  0  0  0  0  0  0  0  0  0  0  0
    1.4310    1.1370    2.0000 C   0  0  0  0  0  0  0  0  0  0  0  0
   -3.1050    0.8670    3.6530 C   0  0  0  0  0  0  0  0  0  0  0  0
   -2.2710   -0.8970    2.5440 O   0  0  0  0  0  0  0  0  0  0  0  0
    0.7950    5.4600    1.5500 C   0  0  0  0  0  0  0  0  0  0  0  0
   -4.3320    2.9540    4.0380 C   0  0  0  0  0  0  0  0  0  0  0  0
    1.6060   -1.7980    2.6110 C   0  0  0  0  0  0  0  0  0  0  0  0
   -4.0020    0.1980    4.5180 C   0  0  0  0  0  0  0  0  0  0  0  0
    0.5380    6.4060    0.5260 C   0  0  0  0  0  0  0  0  0  0  0  0
    1.9550    5.6040    2.3430 C   0  0  0  0  0  0  0  0  0  0  0  0
   -5.2190    2.2750    4.8920 C   0  0  0  0  0  0  0  0  0  0  0  0
    2.0020   -2.6250    3.6910 C   0  0  0  0  0  0  0  0  0  0  0  0
    2.2770   -1.9160    1.3730 C   0  0  0  0  0  0  0  0  0  0  0  0
   -5.0540    0.9000    5.1320 C   0  0  0  0  0  0  0  0  0  0  0  0
    1.4680    7.4400    0.2820 C   0  0  0  0  0  0  0  0  0  0  0  0
   -0.9020    6.3100   -0.4580 S   0  0  0  0  0  0  0  0  0  0  0  0
    2.8740    6.6360    2.0910 C   0  0  0  0  0  0  0  0  0  0  0  0
    3.0920   -3.5090    3.5310 C   0  0  0  0  0  0  0  0  0  0  0  0
    1.1830   -2.5560    5.2330 S   0  0  0  0  0  0  0  0  0  0  0  0
    3.3590   -2.7990    1.2250 C   0  0  0  0  0  0  0  0  0  0  0  0
    2.6440    7.5680    1.0560 C   0  0  0  0  0  0  0  0  0  0  0  0
   -2.2530    6.6360    0.5030 O   0  0  0  0  0  0  0  0  0  0  0  0
   -0.8950    7.3940   -1.7560 O   0  0  0  0  0  0  0  0  0  0  0  0
   -1.0760    4.7450   -1.0720 O   0  0  0  0  0  0  0  0  0  0  0  0
    3.7840   -3.6070    2.3020 C   0  0  0  0  0  0  0  0  0  0  0  0
   -0.4130   -3.0770    5.0410 O   0  0  0  0  0  0  0  0  0  0  0  0
    1.9180   -3.5040    6.4250 O   0  0  0  0  0  0  0  0  0  0  0  0
    1.1320   -0.9560    5.7780 O   0  0  0  0  0  0  0  0  0  0  0  0
    3.6240    8.6590    0.7960 C   0  0  0  0  0  0  0  0  0  0  0  0
    4.9320   -4.5400    2.1360 C   0  0  0  0  0  0  0  0  0  0  0  0
    3.6250    9.7380    1.9140 C   0  0  0  0  0  0  0  0  0  0  0  0
    4.5910   -5.7490    1.2230 C   0  0  0  0  0  0  0  0  0  0  0  0
    4.6280   10.8870    1.6300 C   0  0  0  0  0  0  0  0  0  0  0  0
    5.7810   -6.7330    1.0700 C   0  0  0  0  0  0  0  0  0  0  0  0
    4.6340   11.9610    2.7400 C   0  0  0  0  0  0  0  0  0  0  0  0
    5.4460   -7.9370    0.1610 C   0  0  0  0  0  0  0  0  0  0  0  0
   -1.0390    4.8180    1.8760 H   0  0  0  0  0  0  0  0  0  0  0  0
    2.0820    3.0390    1.4590 H   0  0  0  0  0  0  0  0  0  0  0  0
   -0.2310   -1.3950    3.2020 H   0  0  0  0  0  0  0  0  0  0  0  0
    2.3670    0.7450    1.8890 H   0  0  0  0  0  0  0  0  0  0  0  0
   -4.4620    3.9570    3.8810 H   0  0  0  0  0  0  0  0  0  0  0  0
   -3.8930   -0.8010    4.7110 H   0  0  0  0  0  0  0  0  0  0  0  0
    2.1310    4.9640    3.1220 H   0  0  0  0  0  0  0  0  0  0  0  0
   -5.9830    2.7830    5.3430 H   0  0  0  0  0  0  0  0  0  0  0  0
    1.9700   -1.3700    0.5650 H   0  0  0  0  0  0  0  0  0  0  0  0
   -5.6990    0.4100    5.7570 H   0  0  0  0  0  0  0  0  0  0  0  0
    1.2830    8.1170   -0.4610 H   0  0  0  0  0  0  0  0  0  0  0  0
    3.7110    6.7070    2.6740 H   0  0  0  0  0  0  0  0  0  0  0  0
    3.3810   -4.0970    4.3150 H   0  0  0  0  0  0  0  0  0  0  0  0
    3.8340   -2.8530    0.3200 H   0  0  0  0  0  0  0  0  0  0  0  0
    4.6220    8.2210    0.7060 H   0  0  0  0  0  0  0  0  0  0  0  0
    3.4040    9.1500   -0.1560 H   0  0  0  0  0  0  0  0  0  0  0  0
    5.7760   -3.9860    1.7130 H   0  0  0  0  0  0  0  0  0  0  0  0
    5.2560   -4.9220    3.1080 H   0  0  0  0  0  0  0  0  0  0  0  0
    2.6190   10.1570    2.0020 H   0  0  0  0  0  0  0  0  0  0  0  0
    3.8850    9.2720    2.8680 H   0  0  0  0  0  0  0  0  0  0  0  0
    3.7380   -6.2850    1.6500 H   0  0  0  0  0  0  0  0  0  0  0  0
    4.3050   -5.3870    0.2320 H   0  0  0  0  0  0  0  0  0  0  0  0
    5.6360   10.4740    1.5400 H   0  0  0  0  0  0  0  0  0  0  0  0
    4.3710   11.3680    0.6830 H   0  0  0  0  0  0  0  0  0  0  0  0
    6.6370   -6.2030    0.6450 H   0  0  0  0  0  0  0  0  0  0  0  0
    6.0690   -7.1110    2.0550 H   0  0  0  0  0  0  0  0  0  0  0  0
    5.3530   12.7440    2.4930 H   0  0  0  0  0  0  0  0  0  0  0  0
    3.6450   12.4140    2.8370 H   0  0  0  0  0  0  0  0  0  0  0  0
    4.9170   11.5180    3.6970 H   0  0  0  0  0  0  0  0  0  0  0  0
    6.3120   -8.5960    0.0880 H   0  0  0  0  0  0  0  0  0  0  0  0
    4.6100   -8.5050    0.5750 H   0  0  0  0  0  0  0  0  0  0  0  0
    5.1820   -7.5950   -0.8420 H   0  0  0  0  0  0  0  0  0  0  0  0
  1  4  1  0  0  0  0
  1  2  2  0  0  0  0
  1  3  1  0  0  0  0
  2  6  1  0  0  0  0
  2  5  1  0  0  0  0
  3  7  1  0  0  0  0
  3  8  2  0  0  0  0
  4  9  1  0  0  0  0
  4 10  2  0  0  0  0
  5 11  1  0  0  0  0
  5 12  2  0  0  0  0
  6 13  1  0  0  0  0
  6 14  2  0  0  0  0
  7 47  1  0  0  0  0
  7 15  1  0  0  0  0
  8 12  1  0  0  0  0
  8 48  1  0  0  0  0
  9 13  2  0  0  0  0
  9 16  1  0  0  0  0
 11 49  1  0  0  0  0
 11 17  1  0  0  0  0
 12 50  1  0  0  0  0
 13 18  1  0  0  0  0
 15 20  2  0  0  0  0
 15 19  1  0  0  0  0
 16 21  2  0  0  0  0
 16 51  1  0  0  0  0
 17 22  2  0  0  0  0
 17 23  1  0  0  0  0
 18 52  1  0  0  0  0
 18 24  2  0  0  0  0
 19 25  2  0  0  0  0
 19 26  1  0  0  0  0
 20 53  1  0  0  0  0
 20 27  1  0  0  0  0
 21 24  1  0  0  0  0
 21 54  1  0  0  0  0
 22 29  1  0  0  0  0
 22 28  1  0  0  0  0
 23 30  2  0  0  0  0
 23 55  1  0  0  0  0
 24 56  1  0  0  0  0
 25 31  1  0  0  0  0
 25 57  1  0  0  0  0
 26 32  2  0  0  0  0
 26 33  2  0  0  0  0
 26 34  1  0  0  0  0
 27 58  1  0  0  0  0
 27 31  2  0  0  0  0
 28 59  1  0  0  0  0
 28 35  2  0  0  0  0
 29 38  2  0  0  0  0
 29 37  1  0  0  0  0
 29 36  2  0  0  0  0
 30 35  1  0  0  0  0
 30 60  1  0  0  0  0
 31 39  1  0  0  0  0
 35 40  1  0  0  0  0
 39 41  1  0  0  0  0
 39 61  1  0  0  0  0
 39 62  1  0  0  0  0
 40 64  1  0  0  0  0
 40 42  1  0  0  0  0
 40 63  1  0  0  0  0
 41 65  1  0  0  0  0
 41 66  1  0  0  0  0
 41 43  1  0  0  0  0
 42 67  1  0  0  0  0
 42 44  1  0  0  0  0
 42 68  1  0  0  0  0
 43 45  1  0  0  0  0
 43 69  1  0  0  0  0
 43 70  1  0  0  0  0
 44 72  1  0  0  0  0
 44 46  1  0  0  0  0
 44 71  1  0  0  0  0
 45 74  1  0  0  0  0
 45 75  1  0  0  0  0
 45 73  1  0  0  0  0
 46 77  1  0  0  0  0
 46 76  1  0  0  0  0
 46 78  1  0  0  0  0
M  END
