decoy-525
 OpenBabel06062114513D

 41 43  0  0  0  0  0  0  0  0999 V2000
    0.0380    1.3820   -0.3480 C   0  0  0  0  0  0  0  0  0  0  0  0
    0.0260    0.1850    0.4340 C   0  0  0  0  0  0  0  0  0  0  0  0
    1.2450    1.8330   -0.9510 C   0  0  0  0  0  0  0  0  0  0  0  0
   -1.1560    2.1280   -0.5560 C   0  0  0  0  0  0  0  0  0  0  0  0
    1.2240   -0.5590    0.6230 C   0  0  0  0  0  0  0  0  0  0  0  0
   -1.1780   -0.2910    1.0230 C   0  0  0  0  0  0  0  0  0  0  0  0
    2.4480    1.3090   -0.4140 C   0  0  0  0  0  0  0  0  0  0  0  0
   -2.3550    1.5520   -0.0990 C   0  0  0  0  0  0  0  0  0  0  0  0
    2.4300    0.1220    0.3560 C   0  0  0  0  0  0  0  0  0  0  0  0
   -2.3650    0.3770    0.6680 C   0  0  0  0  0  0  0  0  0  0  0  0
    3.6520    1.9360   -0.6830 C   0  0  0  0  0  0  0  0  0  0  0  0
   -3.9740    2.3830   -0.4950 Br  0  0  0  0  0  0  0  0  0  0  0  0
    3.5980   -0.3950    0.8350 O   0  0  0  0  0  0  0  0  0  0  0  0
    3.9390    3.0530   -0.0280 N   0  0  0  0  0  0  0  0  0  0  0  0
    4.3530    1.4610   -1.5660 O   0  0  0  0  0  0  0  0  0  0  0  0
    5.0350    3.8690   -0.1110 C   0  0  0  0  0  0  0  0  0  0  0  0
    4.8750    5.2140    0.3100 C   0  0  0  0  0  0  0  0  0  0  0  0
    6.3170    3.4420   -0.5400 C   0  0  0  0  0  0  0  0  0  0  0  0
    5.9560    6.1180    0.2320 C   0  0  0  0  0  0  0  0  0  0  0  0
    3.6550    5.6850    0.7230 O   0  0  0  0  0  0  0  0  0  0  0  0
    7.3970    4.3420   -0.5930 C   0  0  0  0  0  0  0  0  0  0  0  0
    7.2150    5.6820   -0.2150 C   0  0  0  0  0  0  0  0  0  0  0  0
    3.4790    5.6360    2.1500 C   0  0  0  0  0  0  0  0  0  0  0  0
    1.2110    1.5360   -1.9300 H   0  0  0  0  0  0  0  0  0  0  0  0
   -1.2580    2.3720   -1.5450 H   0  0  0  0  0  0  0  0  0  0  0  0
    1.2580   -0.9850    1.5550 H   0  0  0  0  0  0  0  0  0  0  0  0
   -1.2920   -1.2930    0.8460 H   0  0  0  0  0  0  0  0  0  0  0  0
   -3.2630    0.0020    0.9880 H   0  0  0  0  0  0  0  0  0  0  0  0
    3.3660   -1.2550    1.2450 H   0  0  0  0  0  0  0  0  0  0  0  0
    3.2370    3.3670    0.5640 H   0  0  0  0  0  0  0  0  0  0  0  0
    6.4880    2.4690   -0.7950 H   0  0  0  0  0  0  0  0  0  0  0  0
    5.8290    7.0950    0.5060 H   0  0  0  0  0  0  0  0  0  0  0  0
    8.3160    4.0200   -0.9050 H   0  0  0  0  0  0  0  0  0  0  0  0
    7.9980    6.3380   -0.2610 H   0  0  0  0  0  0  0  0  0  0  0  0
    2.4820    6.0120    2.3820 H   0  0  0  0  0  0  0  0  0  0  0  0
    3.5540    4.6130    2.5270 H   0  0  0  0  0  0  0  0  0  0  0  0
    4.2080    6.2670    2.6630 H   0  0  0  0  0  0  0  0  0  0  0  0
    1.2770    2.8580   -0.9920 H   0  0  0  0  0  0  0  0  0  0  0  0
   -1.0540    3.0330   -0.0890 H   0  0  0  0  0  0  0  0  0  0  0  0
    1.1870   -1.3520   -0.0230 H   0  0  0  0  0  0  0  0  0  0  0  0
   -1.0840   -0.2320    2.0410 H   0  0  0  0  0  0  0  0  0  0  0  0
  1  2  2  0  0  0  0
  1  3  1  0  0  0  0
  1  4  1  0  0  0  0
  2  5  1  0  0  0  0
  2  6  1  0  0  0  0
  3  7  1  0  0  0  0
  3 24  1  0  0  0  0
  3 38  1  0  0  0  0
  4  8  1  0  0  0  0
  4 39  1  0  0  0  0
  4 25  1  0  0  0  0
  5 26  1  0  0  0  0
  5  9  1  0  0  0  0
  5 40  1  0  0  0  0
  6 41  1  0  0  0  0
  6 10  1  0  0  0  0
  6 27  1  0  0  0  0
  7  9  2  0  0  0  0
  7 11  1  0  0  0  0
  8 10  2  0  0  0  0
  8 12  1  0  0  0  0
  9 13  1  0  0  0  0
 10 28  1  0  0  0  0
 11 14  1  0  0  0  0
 11 15  2  0  0  0  0
 13 29  1  0  0  0  0
 14 30  1  0  0  0  0
 14 16  1  0  0  0  0
 16 17  2  0  0  0  0
 16 18  1  0  0  0  0
 17 20  1  0  0  0  0
 17 19  1  0  0  0  0
 18 21  2  0  0  0  0
 18 31  1  0  0  0  0
 19 32  1  0  0  0  0
 19 22  2  0  0  0  0
 20 23  1  0  0  0  0
 21 22  1  0  0  0  0
 21 33  1  0  0  0  0
 22 34  1  0  0  0  0
 23 35  1  0  0  0  0
 23 36  1  0  0  0  0
 23 37  1  0  0  0  0
M  END
