decoy-208
 OpenBabel06062114503D

 70 74  0  0  0  0  0  0  0  0999 V2000
    0.2810    4.0660   -2.7870 N   0  0  0  0  0  0  0  0  0  0  0  0
   -0.5550    5.0360   -2.1600 C   0  0  0  0  0  0  0  0  0  0  0  0
    1.5720    3.7500   -2.5200 C   0  0  0  0  0  0  0  0  0  0  0  0
   -0.7290    3.3180   -3.1780 C   0  0  0  0  0  0  0  0  0  0  0  0
   -1.7490    4.1150   -2.5530 C   0  0  0  0  0  0  0  0  0  0  0  0
   -0.1320    5.2560   -0.4100 S   0  0  0  0  0  0  0  0  0  0  0  0
    2.2180    4.3200   -1.4650 C   0  0  0  0  0  0  0  0  0  0  0  0
    2.1550    2.7650   -3.3000 C   0  0  0  0  0  0  0  0  0  0  0  0
   -0.7710    2.1410   -3.5080 O   0  0  0  0  0  0  0  0  0  0  0  0
   -2.3900    3.4500   -1.4610 N   0  0  0  0  0  0  0  0  0  0  0  0
    1.6220    5.4840   -0.7880 C   0  0  0  0  0  0  0  0  0  0  0  0
    3.4970    3.8330   -0.9310 C   0  0  0  0  0  0  0  0  0  0  0  0
    2.2800    1.5120   -2.8080 O   0  0  0  0  0  0  0  0  0  0  0  0
    2.2410    2.9370   -4.6370 O   0  0  0  0  0  0  0  0  0  0  0  0
   -3.2990    2.4890   -1.5440 C   0  0  0  0  0  0  0  0  0  0  0  0
    3.1540    2.8400    0.5430 S   0  0  0  0  0  0  0  0  0  0  0  0
   -3.5960    1.7420   -0.3250 C   0  0  0  0  0  0  0  0  0  0  0  0
   -3.8120    2.2110   -2.6210 O   0  0  0  0  0  0  0  0  0  0  0  0
    4.7770    2.3610    0.9470 C   0  0  0  0  0  0  0  0  0  0  0  0
   -4.6660    0.7000   -0.4440 C   0  0  0  0  0  0  0  0  0  0  0  0
   -2.3740    1.0980    0.0880 N   0  0  0  0  0  0  0  0  0  0  0  0
    5.3420    2.2720    2.1590 N   0  0  0  0  0  0  0  0  0  0  0  0
    5.7080    1.9280    0.0940 N   0  0  0  0  0  0  0  0  0  0  0  0
   -4.5020   -0.4260   -1.2900 C   0  0  0  0  0  0  0  0  0  0  0  0
   -5.8690    0.8070    0.2960 C   0  0  0  0  0  0  0  0  0  0  0  0
   -1.5520    1.4130    1.0920 C   0  0  0  0  0  0  0  0  0  0  0  0
    6.5130    1.8380    1.9780 N   0  0  0  0  0  0  0  0  0  0  0  0
    4.8020    2.5780    3.4440 C   0  0  0  0  0  0  0  0  0  0  0  0
    6.7220    1.6400    0.7860 N   0  0  0  0  0  0  0  0  0  0  0  0
   -5.5060   -1.4060   -1.3970 C   0  0  0  0  0  0  0  0  0  0  0  0
   -6.8740   -0.1720    0.1910 C   0  0  0  0  0  0  0  0  0  0  0  0
   -0.3580    0.7910    1.2750 N   0  0  0  0  0  0  0  0  0  0  0  0
   -1.9310    2.3090    1.8400 O   0  0  0  0  0  0  0  0  0  0  0  0
   -6.6960   -1.2810   -0.6560 C   0  0  0  0  0  0  0  0  0  0  0  0
    0.4510    1.0150    2.3400 C   0  0  0  0  0  0  0  0  0  0  0  0
    0.0560   -0.2140    0.3010 C   0  0  0  0  0  0  0  0  0  0  0  0
   -7.6750   -2.2160   -0.7460 O   0  0  0  0  0  0  0  0  0  0  0  0
    1.5890    0.2800    2.5830 C   0  0  0  0  0  0  0  0  0  0  0  0
    0.1980    1.8960    3.1580 O   0  0  0  0  0  0  0  0  0  0  0  0
    1.5570   -0.6040    0.3400 C   0  0  0  0  0  0  0  0  0  0  0  0
    2.1430   -0.5160    1.6540 N   0  0  0  0  0  0  0  0  0  0  0  0
    2.1110    0.3630    3.6920 O   0  0  0  0  0  0  0  0  0  0  0  0
    3.3980   -1.2170    1.8830 C   0  0  0  0  0  0  0  0  0  0  0  0
    3.2110   -2.4830    2.7480 C   0  0  0  0  0  0  0  0  0  0  0  0
   -0.5510    5.9860   -2.7050 H   0  0  0  0  0  0  0  0  0  0  0  0
   -2.4350    4.5790   -3.2670 H   0  0  0  0  0  0  0  0  0  0  0  0
   -3.9110    2.4850    0.4150 H   0  0  0  0  0  0  0  0  0  0  0  0
   -2.0510    3.6450   -0.5740 H   0  0  0  0  0  0  0  0  0  0  0  0
    1.7350    6.3610   -1.4290 H   0  0  0  0  0  0  0  0  0  0  0  0
    2.1200    5.7120    0.1570 H   0  0  0  0  0  0  0  0  0  0  0  0
    4.0530    3.2280   -1.6480 H   0  0  0  0  0  0  0  0  0  0  0  0
    4.1440    4.6720   -0.6630 H   0  0  0  0  0  0  0  0  0  0  0  0
   -2.0800    0.3800   -0.4910 H   0  0  0  0  0  0  0  0  0  0  0  0
   -3.6460   -0.5390   -1.8380 H   0  0  0  0  0  0  0  0  0  0  0  0
   -6.0260    1.6020    0.9200 H   0  0  0  0  0  0  0  0  0  0  0  0
    3.7740    2.9360    3.3800 H   0  0  0  0  0  0  0  0  0  0  0  0
    5.4070    3.3520    3.9200 H   0  0  0  0  0  0  0  0  0  0  0  0
    4.8170    1.6840    4.0700 H   0  0  0  0  0  0  0  0  0  0  0  0
   -5.3670   -2.2090   -2.0140 H   0  0  0  0  0  0  0  0  0  0  0  0
   -7.7360   -0.0760    0.7330 H   0  0  0  0  0  0  0  0  0  0  0  0
   -0.5470   -1.1120    0.4680 H   0  0  0  0  0  0  0  0  0  0  0  0
   -0.1310    0.1330   -0.7210 H   0  0  0  0  0  0  0  0  0  0  0  0
   -7.3480   -2.8850   -1.3840 H   0  0  0  0  0  0  0  0  0  0  0  0
    1.6470   -1.6220   -0.0540 H   0  0  0  0  0  0  0  0  0  0  0  0
    2.1230    0.0570   -0.3230 H   0  0  0  0  0  0  0  0  0  0  0  0
    3.8570   -1.5280    0.9390 H   0  0  0  0  0  0  0  0  0  0  0  0
    4.1220   -0.5530    2.3640 H   0  0  0  0  0  0  0  0  0  0  0  0
    2.8290   -2.2260    3.7370 H   0  0  0  0  0  0  0  0  0  0  0  0
    4.1680   -2.9940    2.8680 H   0  0  0  0  0  0  0  0  0  0  0  0
    2.5090   -3.1660    2.2650 H   0  0  0  0  0  0  0  0  0  0  0  0
  1  3  1  0  0  0  0
  1  2  1  0  0  0  0
  1  4  1  0  0  0  0
  2  5  1  0  0  0  0
  2  6  1  0  0  0  0
  2 45  1  0  0  0  0
  3  7  2  0  0  0  0
  3  8  1  0  0  0  0
  4  5  1  0  0  0  0
  4  9  2  0  0  0  0
  5 46  1  0  0  0  0
  5 10  1  0  0  0  0
  6 11  1  0  0  0  0
  7 12  1  0  0  0  0
  7 11  1  0  0  0  0
  8 13  1  0  0  0  0
  8 14  2  0  0  0  0
 10 48  1  0  0  0  0
 10 15  1  0  0  0  0
 11 50  1  0  0  0  0
 11 49  1  0  0  0  0
 12 52  1  0  0  0  0
 12 16  1  0  0  0  0
 12 51  1  0  0  0  0
 15 17  1  0  0  0  0
 15 18  2  0  0  0  0
 16 19  1  0  0  0  0
 17 21  1  0  0  0  0
 17 47  1  0  0  0  0
 17 20  1  0  0  0  0
 19 22  1  0  0  0  0
 19 23  2  0  0  0  0
 20 25  2  0  0  0  0
 20 24  1  0  0  0  0
 21 26  1  0  0  0  0
 21 53  1  0  0  0  0
 22 28  1  0  0  0  0
 22 27  1  0  0  0  0
 23 29  1  0  0  0  0
 24 30  2  0  0  0  0
 24 54  1  0  0  0  0
 25 55  1  0  0  0  0
 25 31  1  0  0  0  0
 26 32  1  0  0  0  0
 26 33  2  0  0  0  0
 27 29  2  0  0  0  0
 28 57  1  0  0  0  0
 28 58  1  0  0  0  0
 28 56  1  0  0  0  0
 30 34  1  0  0  0  0
 30 59  1  0  0  0  0
 31 60  1  0  0  0  0
 31 34  2  0  0  0  0
 32 35  1  0  0  0  0
 32 36  1  0  0  0  0
 34 37  1  0  0  0  0
 35 38  1  0  0  0  0
 35 39  2  0  0  0  0
 36 40  1  0  0  0  0
 36 61  1  0  0  0  0
 36 62  1  0  0  0  0
 37 63  1  0  0  0  0
 38 42  2  0  0  0  0
 38 41  1  0  0  0  0
 40 41  1  0  0  0  0
 40 64  1  0  0  0  0
 40 65  1  0  0  0  0
 41 43  1  0  0  0  0
 43 67  1  0  0  0  0
 43 44  1  0  0  0  0
 43 66  1  0  0  0  0
 44 69  1  0  0  0  0
 44 68  1  0  0  0  0
 44 70  1  0  0  0  0
M  END
