decoy-450
 OpenBabel06062114513D

 23 22  0  0  0  0  0  0  0  0999 V2000
   -0.3280    1.4610    0.1810 C   0  0  0  0  0  0  0  0  0  0  0  0
   -0.1580    0.1330   -0.9220 S   0  0  0  0  0  0  0  0  0  0  0  0
    0.5080    1.5820    1.2230 C   0  0  0  0  0  0  0  0  0  0  0  0
   -1.2850    2.3780   -0.0230 N   0  0  0  0  0  0  0  0  0  0  0  0
   -1.2320   -1.0150   -0.0240 C   0  0  0  0  0  0  0  0  0  0  0  0
   -1.3180   -2.3720   -0.7620 C   0  0  0  0  0  0  0  0  0  0  0  0
   -2.2270   -3.3860   -0.0280 C   0  0  0  0  0  0  0  0  0  0  0  0
   -2.2930   -4.9530   -0.9320 S   0  0  0  0  0  0  0  0  0  0  0  0
   -3.3610   -5.7660    0.1680 C   0  0  0  0  0  0  0  0  0  0  0  0
   -2.8630   -6.4510    1.2080 C   0  0  0  0  0  0  0  0  0  0  0  0
   -4.6850   -5.7250   -0.0380 N   0  0  0  0  0  0  0  0  0  0  0  0
    0.4170    2.3290    1.8360 H   0  0  0  0  0  0  0  0  0  0  0  0
    1.2050    0.9220    1.3660 H   0  0  0  0  0  0  0  0  0  0  0  0
   -1.3810    3.1270    0.5860 H   0  0  0  0  0  0  0  0  0  0  0  0
   -0.8280   -1.1690    0.9800 H   0  0  0  0  0  0  0  0  0  0  0  0
   -2.2300   -0.5790    0.0590 H   0  0  0  0  0  0  0  0  0  0  0  0
   -1.7110   -2.2050   -1.7690 H   0  0  0  0  0  0  0  0  0  0  0  0
   -0.3130   -2.7930   -0.8500 H   0  0  0  0  0  0  0  0  0  0  0  0
   -1.8350   -3.5690    0.9760 H   0  0  0  0  0  0  0  0  0  0  0  0
   -3.2380   -2.9790    0.0540 H   0  0  0  0  0  0  0  0  0  0  0  0
   -3.4600   -6.9110    1.8180 H   0  0  0  0  0  0  0  0  0  0  0  0
   -1.9040   -6.4870    1.3520 H   0  0  0  0  0  0  0  0  0  0  0  0
   -5.2880   -6.1830    0.5680 H   0  0  0  0  0  0  0  0  0  0  0  0
  1  3  2  0  0  0  0
  1  2  1  0  0  0  0
  1  4  1  0  0  0  0
  2  5  1  0  0  0  0
  3 13  1  0  0  0  0
  3 12  1  0  0  0  0
  4 14  1  0  0  0  0
  5 16  1  0  0  0  0
  5 15  1  0  0  0  0
  5  6  1  0  0  0  0
  6  7  1  0  0  0  0
  6 17  1  0  0  0  0
  6 18  1  0  0  0  0
  7 20  1  0  0  0  0
  7 19  1  0  0  0  0
  7  8  1  0  0  0  0
  8  9  1  0  0  0  0
  9 10  2  0  0  0  0
  9 11  1  0  0  0  0
 10 22  1  0  0  0  0
 10 21  1  0  0  0  0
 11 23  1  0  0  0  0
M  END
