decoy-427
 OpenBabel06062114513D

 17 17  0  0  0  0  0  0  0  0999 V2000
   -0.0660    1.7230    0.0620 S   0  0  0  0  0  0  0  0  0  0  0  0
   -0.0350   -0.0170    0.0350 C   0  0  0  0  0  0  0  0  0  0  0  0
    1.5200    2.3000   -0.0150 O   0  0  0  0  0  0  0  0  0  0  0  0
   -0.9220    2.3390   -1.2600 O   0  0  0  0  0  0  0  0  0  0  0  0
   -0.7750    2.3000    1.4840 O   0  0  0  0  0  0  0  0  0  0  0  0
    0.0540   -0.7450    1.2380 C   0  0  0  0  0  0  0  0  0  0  0  0
   -0.0760   -0.7110   -1.1900 C   0  0  0  0  0  0  0  0  0  0  0  0
    0.0890   -2.1520    1.2210 C   0  0  0  0  0  0  0  0  0  0  0  0
   -0.0420   -2.1180   -1.2170 C   0  0  0  0  0  0  0  0  0  0  0  0
    0.0400   -2.8460   -0.0090 C   0  0  0  0  0  0  0  0  0  0  0  0
    0.2030   -3.0540    2.8490 Br  0  0  0  0  0  0  0  0  0  0  0  0
   -0.1040   -2.9720   -2.8730 Br  0  0  0  0  0  0  0  0  0  0  0  0
    0.0730   -4.1910   -0.0300 N   0  0  0  0  0  0  0  0  0  0  0  0
    0.0950   -0.2540    2.1330 H   0  0  0  0  0  0  0  0  0  0  0  0
   -0.1300   -0.1940   -2.0710 H   0  0  0  0  0  0  0  0  0  0  0  0
    0.1300   -4.6920    0.7990 H   0  0  0  0  0  0  0  0  0  0  0  0
    0.0400   -4.6680   -0.8740 H   0  0  0  0  0  0  0  0  0  0  0  0
  1  5  2  0  0  0  0
  1  2  1  0  0  0  0
  1  3  2  0  0  0  0
  1  4  1  0  0  0  0
  2  6  2  0  0  0  0
  2  7  1  0  0  0  0
  6 14  1  0  0  0  0
  6  8  1  0  0  0  0
  7  9  2  0  0  0  0
  7 15  1  0  0  0  0
  8 11  1  0  0  0  0
  8 10  2  0  0  0  0
  9 10  1  0  0  0  0
  9 12  1  0  0  0  0
 10 13  1  0  0  0  0
 13 16  1  0  0  0  0
 13 17  1  0  0  0  0
M  END
