decoy-919
 OpenBabel06062114513D

 50 53  0  0  0  0  0  0  0  0999 V2000
    0.2940    0.9400    0.1920 C   0  0  0  0  0  0  0  0  0  0  0  0
    0.6890   -0.3450    0.6920 C   0  0  0  0  0  0  0  0  0  0  0  0
    1.2570    1.8010   -0.4160 C   0  0  0  0  0  0  0  0  0  0  0  0
   -1.0560    1.3150    0.3380 C   0  0  0  0  0  0  0  0  0  0  0  0
   -0.2770   -1.1510    1.3220 C   0  0  0  0  0  0  0  0  0  0  0  0
    2.0460   -0.7510    0.5800 C   0  0  0  0  0  0  0  0  0  0  0  0
    0.8860    3.0550   -0.8060 N   0  0  0  0  0  0  0  0  0  0  0  0
    2.5940    1.3520   -0.5220 C   0  0  0  0  0  0  0  0  0  0  0  0
   -1.8410    0.7040    1.3170 C   0  0  0  0  0  0  0  0  0  0  0  0
   -1.6310    1.8600   -0.5950 O   0  0  0  0  0  0  0  0  0  0  0  0
   -1.4420   -0.5660    1.8220 C   0  0  0  0  0  0  0  0  0  0  0  0
   -0.2680   -2.3630    1.1430 O   0  0  0  0  0  0  0  0  0  0  0  0
    2.9810    0.0960   -0.0390 C   0  0  0  0  0  0  0  0  0  0  0  0
    2.5110   -1.9170    1.0720 N   0  0  0  0  0  0  0  0  0  0  0  0
    1.5660    4.0020   -1.5160 C   0  0  0  0  0  0  0  0  0  0  0  0
   -3.0110    1.3180    1.8230 C   0  0  0  0  0  0  0  0  0  0  0  0
   -2.2230   -1.1930    2.8220 C   0  0  0  0  0  0  0  0  0  0  0  0
    1.4330    5.3470   -1.1170 C   0  0  0  0  0  0  0  0  0  0  0  0
    2.2960    3.7110   -2.6900 C   0  0  0  0  0  0  0  0  0  0  0  0
   -3.7790    0.6810    2.8140 C   0  0  0  0  0  0  0  0  0  0  0  0
   -3.3860   -0.5720    3.3120 C   0  0  0  0  0  0  0  0  0  0  0  0
    2.0680    6.3760   -1.8360 C   0  0  0  0  0  0  0  0  0  0  0  0
    2.9320    4.7390   -3.4110 C   0  0  0  0  0  0  0  0  0  0  0  0
    2.8330    6.0840   -2.9880 C   0  0  0  0  0  0  0  0  0  0  0  0
    3.5150    7.1590   -3.7580 C   0  0  0  0  0  0  0  0  0  0  0  0
    5.0070    7.0040   -3.7860 *   0  0  0  0  0  0  0  0  0  0  0  0
    5.6420    7.8670   -4.8250 C   0  0  0  0  0  0  0  0  0  0  0  0
    5.6490    7.1950   -2.4510 C   0  0  0  0  0  0  0  0  0  0  0  0
    0.0140    3.3420   -0.4960 H   0  0  0  0  0  0  0  0  0  0  0  0
    3.3220    1.9570   -0.9040 H   0  0  0  0  0  0  0  0  0  0  0  0
    3.9630   -0.1840   -0.1140 H   0  0  0  0  0  0  0  0  0  0  0  0
    1.9170   -2.5300    1.5320 H   0  0  0  0  0  0  0  0  0  0  0  0
    3.4500   -2.1430    0.9790 H   0  0  0  0  0  0  0  0  0  0  0  0
   -3.3090    2.2350    1.4790 H   0  0  0  0  0  0  0  0  0  0  0  0
   -1.9480   -2.1010    3.2050 H   0  0  0  0  0  0  0  0  0  0  0  0
    0.8800    5.5860   -0.2890 H   0  0  0  0  0  0  0  0  0  0  0  0
    2.3530    2.7520   -3.0410 H   0  0  0  0  0  0  0  0  0  0  0  0
   -4.6230    1.1320    3.1750 H   0  0  0  0  0  0  0  0  0  0  0  0
   -3.9440   -1.0310    4.0360 H   0  0  0  0  0  0  0  0  0  0  0  0
    1.9680    7.3410   -1.5110 H   0  0  0  0  0  0  0  0  0  0  0  0
    3.4590    4.5010   -4.2550 H   0  0  0  0  0  0  0  0  0  0  0  0
    3.1160    7.1140   -4.7760 H   0  0  0  0  0  0  0  0  0  0  0  0
    3.2600    8.1480   -3.3640 H   0  0  0  0  0  0  0  0  0  0  0  0
    6.7170    7.6810   -4.8720 H   0  0  0  0  0  0  0  0  0  0  0  0
    5.2320    7.6400   -5.8110 H   0  0  0  0  0  0  0  0  0  0  0  0
    5.4790    8.9270   -4.6130 H   0  0  0  0  0  0  0  0  0  0  0  0
    5.2460    6.4860   -1.7260 H   0  0  0  0  0  0  0  0  0  0  0  0
    6.7240    7.0130   -2.5150 H   0  0  0  0  0  0  0  0  0  0  0  0
    5.4870    8.2080   -2.0750 H   0  0  0  0  0  0  0  0  0  0  0  0
    5.1960    6.0390   -4.0650 H   0  0  0  0  0  0  0  0  0  0  0  0
  1  4  1  0  0  0  0
  1  2  2  0  0  0  0
  1  3  1  0  0  0  0
  2  5  1  0  0  0  0
  2  6  1  0  0  0  0
  3  7  1  0  0  0  0
  3  8  2  0  0  0  0
  4  9  1  0  0  0  0
  4 10  2  0  0  0  0
  5 11  1  0  0  0  0
  5 12  2  0  0  0  0
  6 14  1  0  0  0  0
  6 13  2  0  0  0  0
  7 29  1  0  0  0  0
  7 15  1  0  0  0  0
  8 13  1  0  0  0  0
  8 30  1  0  0  0  0
  9 11  2  0  0  0  0
  9 16  1  0  0  0  0
 11 17  1  0  0  0  0
 13 31  1  0  0  0  0
 14 32  1  0  0  0  0
 14 33  1  0  0  0  0
 15 18  2  0  0  0  0
 15 19  1  0  0  0  0
 16 20  2  0  0  0  0
 16 34  1  0  0  0  0
 17 35  1  0  0  0  0
 17 21  2  0  0  0  0
 18 36  1  0  0  0  0
 18 22  1  0  0  0  0
 19 23  2  0  0  0  0
 19 37  1  0  0  0  0
 20 38  1  0  0  0  0
 20 21  1  0  0  0  0
 21 39  1  0  0  0  0
 22 40  1  0  0  0  0
 22 24  2  0  0  0  0
 23 24  1  0  0  0  0
 23 41  1  0  0  0  0
 24 25  1  0  0  0  0
 25 43  1  0  0  0  0
 25 26  1  0  0  0  0
 25 42  1  0  0  0  0
 26 28  1  0  0  0  0
 26 27  1  0  0  0  0
 26 50  1  0  0  0  0
 27 46  1  0  0  0  0
 27 44  1  0  0  0  0
 27 45  1  0  0  0  0
 28 49  1  0  0  0  0
 28 47  1  0  0  0  0
 28 48  1  0  0  0  0
M  END
