decoy-990
 OpenBabel06062114513D

 14 14  0  0  0  0  0  0  0  0999 V2000
   -0.0420    1.3950    0.0080 C   0  0  0  0  0  0  0  0  0  0  0  0
   -0.0230   -0.0190    0.0000 C   0  0  0  0  0  0  0  0  0  0  0  0
    1.1740    2.1170    0.0000 C   0  0  0  0  0  0  0  0  0  0  0  0
   -1.6690    2.3070    0.0270 Br  0  0  0  0  0  0  0  0  0  0  0  0
    1.2090   -0.7040   -0.0140 C   0  0  0  0  0  0  0  0  0  0  0  0
   -1.1710   -0.7460    0.0070 O   0  0  0  0  0  0  0  0  0  0  0  0
    2.4020    1.4230   -0.0140 C   0  0  0  0  0  0  0  0  0  0  0  0
    1.1950    3.4750    0.0070 O   0  0  0  0  0  0  0  0  0  0  0  0
    2.4160    0.0170   -0.0210 C   0  0  0  0  0  0  0  0  0  0  0  0
    1.2720   -2.5660   -0.0240 Br  0  0  0  0  0  0  0  0  0  0  0  0
    4.0220    2.3410   -0.0240 Br  0  0  0  0  0  0  0  0  0  0  0  0
   -1.9080   -0.1030    0.0170 H   0  0  0  0  0  0  0  0  0  0  0  0
    0.2620    3.7690    0.0170 H   0  0  0  0  0  0  0  0  0  0  0  0
    3.3070   -0.4820   -0.0320 H   0  0  0  0  0  0  0  0  0  0  0  0
  1  4  1  0  0  0  0
  1  2  2  0  0  0  0
  1  3  1  0  0  0  0
  2  6  1  0  0  0  0
  2  5  1  0  0  0  0
  3  8  1  0  0  0  0
  3  7  2  0  0  0  0
  5  9  2  0  0  0  0
  5 10  1  0  0  0  0
  6 12  1  0  0  0  0
  7  9  1  0  0  0  0
  7 11  1  0  0  0  0
  8 13  1  0  0  0  0
  9 14  1  0  0  0  0
M  END
