decoy-91
 OpenBabel06062114503D

 31 32  0  0  0  0  0  0  0  0999 V2000
    1.0510    1.0120    0.2030 C   0  0  0  0  0  0  0  0  0  0  0  0
    0.2160    0.3240   -0.7070 C   0  0  0  0  0  0  0  0  0  0  0  0
    2.3970    0.8390    0.2410 N   0  0  0  0  0  0  0  0  0  0  0  0
    0.4680    1.9110    1.1180 C   0  0  0  0  0  0  0  0  0  0  0  0
   -1.1790    0.5160   -0.6730 C   0  0  0  0  0  0  0  0  0  0  0  0
    0.9350   -0.6980   -1.9140 S   0  0  0  0  0  0  0  0  0  0  0  0
    3.1340   -0.1780   -0.4540 C   0  0  0  0  0  0  0  0  0  0  0  0
   -0.9270    2.1110    1.1540 C   0  0  0  0  0  0  0  0  0  0  0  0
   -1.7640    1.4040    0.2540 C   0  0  0  0  0  0  0  0  0  0  0  0
    2.6020   -0.4430   -1.7710 N   0  0  0  0  0  0  0  0  0  0  0  0
    0.5270   -2.2170   -1.6810 O   0  0  0  0  0  0  0  0  0  0  0  0
    0.3790   -0.1600   -3.3050 O   0  0  0  0  0  0  0  0  0  0  0  0
    3.2010   -1.4500    0.4370 C   0  0  0  0  0  0  0  0  0  0  0  0
   -1.5280    3.2050    2.3040 Cl  0  0  0  0  0  0  0  0  0  0  0  0
   -3.5010    1.5960    0.2420 S   0  0  0  0  0  0  0  0  0  0  0  0
    3.4350   -0.3900   -2.9380 C   0  0  0  0  0  0  0  0  0  0  0  0
    4.2040   -2.7180   -0.2620 Cl  0  0  0  0  0  0  0  0  0  0  0  0
   -4.1820    1.1620    1.7150 N   0  0  0  0  0  0  0  0  0  0  0  0
   -4.2540    0.8050   -0.9140 O   0  0  0  0  0  0  0  0  0  0  0  0
   -3.8650    3.1270    0.0090 O   0  0  0  0  0  0  0  0  0  0  0  0
    2.8890    1.3610    0.8950 H   0  0  0  0  0  0  0  0  0  0  0  0
    1.0690    2.4180    1.7760 H   0  0  0  0  0  0  0  0  0  0  0  0
   -1.7660    0.0100   -1.3390 H   0  0  0  0  0  0  0  0  0  0  0  0
    4.1570    0.2020   -0.5370 H   0  0  0  0  0  0  0  0  0  0  0  0
    3.6250   -1.1940    1.4110 H   0  0  0  0  0  0  0  0  0  0  0  0
    2.2010   -1.8560    0.6020 H   0  0  0  0  0  0  0  0  0  0  0  0
    2.8960   -0.6480   -3.8510 H   0  0  0  0  0  0  0  0  0  0  0  0
    4.2650   -1.0910   -2.8350 H   0  0  0  0  0  0  0  0  0  0  0  0
    3.8390    0.6170   -3.0540 H   0  0  0  0  0  0  0  0  0  0  0  0
   -4.4670    1.8470    2.3400 H   0  0  0  0  0  0  0  0  0  0  0  0
   -4.2870    0.2250    1.9440 H   0  0  0  0  0  0  0  0  0  0  0  0
  1  3  1  0  0  0  0
  1  4  2  0  0  0  0
  1  2  1  0  0  0  0
  2  5  2  0  0  0  0
  2  6  1  0  0  0  0
  3 21  1  0  0  0  0
  3  7  1  0  0  0  0
  4  8  1  0  0  0  0
  4 22  1  0  0  0  0
  5  9  1  0  0  0  0
  5 23  1  0  0  0  0
  6 10  1  0  0  0  0
  6 11  2  0  0  0  0
  6 12  2  0  0  0  0
  7 24  1  0  0  0  0
  7 13  1  0  0  0  0
  7 10  1  0  0  0  0
  8 14  1  0  0  0  0
  8  9  2  0  0  0  0
  9 15  1  0  0  0  0
 10 16  1  0  0  0  0
 13 26  1  0  0  0  0
 13 25  1  0  0  0  0
 13 17  1  0  0  0  0
 15 18  1  0  0  0  0
 15 19  2  0  0  0  0
 15 20  2  0  0  0  0
 16 28  1  0  0  0  0
 16 27  1  0  0  0  0
 16 29  1  0  0  0  0
 18 31  1  0  0  0  0
 18 30  1  0  0  0  0
M  END
