decoy-727
 OpenBabel06062114513D

 60 63  0  0  0  0  0  0  0  0999 V2000
   -3.2360    0.5370    0.7060 C   0  0  0  0  0  0  0  0  0  0  0  0
   -1.9980    1.5250    0.6540 C   0  0  0  0  0  0  0  0  0  0  0  0
   -3.5910    0.3960   -0.8210 C   0  0  0  0  0  0  0  0  0  0  0  0
   -2.8140   -0.7160    1.3020 O   0  0  0  0  0  0  0  0  0  0  0  0
   -4.3870    0.9320    1.5470 C   0  0  0  0  0  0  0  0  0  0  0  0
   -1.2150    0.9030   -0.5590 C   0  0  0  0  0  0  0  0  0  0  0  0
   -1.0130    1.5280    1.8830 C   0  0  0  0  0  0  0  0  0  0  0  0
   -2.4940    3.0090    0.4180 C   0  0  0  0  0  0  0  0  0  0  0  0
   -2.2960    0.6510   -1.6310 C   0  0  0  0  0  0  0  0  0  0  0  0
   -2.5530   -2.0050    0.9510 C   0  0  0  0  0  0  0  0  0  0  0  0
   -4.2960    1.1310    2.9860 C   0  0  0  0  0  0  0  0  0  0  0  0
   -5.5140    0.9780    1.0670 O   0  0  0  0  0  0  0  0  0  0  0  0
    0.0870    1.6900   -0.9170 C   0  0  0  0  0  0  0  0  0  0  0  0
    0.3680    2.2030    1.5950 C   0  0  0  0  0  0  0  0  0  0  0  0
   -2.1380   -2.9310    2.0120 C   0  0  0  0  0  0  0  0  0  0  0  0
   -2.6040   -2.4460   -0.3260 O   0  0  0  0  0  0  0  0  0  0  0  0
    1.0680    1.6250    0.3200 C   0  0  0  0  0  0  0  0  0  0  0  0
    0.7310    1.2840   -2.1700 C   0  0  0  0  0  0  0  0  0  0  0  0
    2.5100    2.1610   -0.0750 C   0  0  0  0  0  0  0  0  0  0  0  0
    2.0730    1.2590   -2.3410 C   0  0  0  0  0  0  0  0  0  0  0  0
    2.9060    1.2970   -1.2350 C   0  0  0  0  0  0  0  0  0  0  0  0
    3.5600    2.0520    1.1040 C   0  0  0  0  0  0  0  0  0  0  0  0
    2.4930    3.6740   -0.4980 C   0  0  0  0  0  0  0  0  0  0  0  0
    2.6070    1.2250   -3.7030 C   0  0  0  0  0  0  0  0  0  0  0  0
    3.8500    0.3290   -1.1100 C   0  0  0  0  0  0  0  0  0  0  0  0
    4.0720    0.6060    1.3080 C   0  0  0  0  0  0  0  0  0  0  0  0
    4.5480    0.1020    0.0330 C   0  0  0  0  0  0  0  0  0  0  0  0
    5.6090   -0.5070   -0.0170 O   0  0  0  0  0  0  0  0  0  0  0  0
   -0.8660   -0.1000   -0.2800 H   0  0  0  0  0  0  0  0  0  0  0  0
   -0.1960    2.7280   -1.0900 H   0  0  0  0  0  0  0  0  0  0  0  0
    1.2070    0.5620    0.5550 H   0  0  0  0  0  0  0  0  0  0  0  0
   -4.0320   -0.5750   -1.0510 H   0  0  0  0  0  0  0  0  0  0  0  0
   -4.3270    1.1460   -1.1260 H   0  0  0  0  0  0  0  0  0  0  0  0
   -1.4670    2.0380    2.7340 H   0  0  0  0  0  0  0  0  0  0  0  0
   -0.8150    0.5020    2.2020 H   0  0  0  0  0  0  0  0  0  0  0  0
   -3.1160    3.1000   -0.4710 H   0  0  0  0  0  0  0  0  0  0  0  0
   -1.6740    3.7140    0.3020 H   0  0  0  0  0  0  0  0  0  0  0  0
   -3.0840    3.3550    1.2660 H   0  0  0  0  0  0  0  0  0  0  0  0
   -2.0430   -0.2110   -2.2550 H   0  0  0  0  0  0  0  0  0  0  0  0
   -2.4050    1.5270   -2.2770 H   0  0  0  0  0  0  0  0  0  0  0  0
   -3.7870    0.2910    3.4610 H   0  0  0  0  0  0  0  0  0  0  0  0
   -5.2840    1.2210    3.4450 H   0  0  0  0  0  0  0  0  0  0  0  0
   -3.7510    2.0460    3.2070 H   0  0  0  0  0  0  0  0  0  0  0  0
    0.2490    3.2830    1.4960 H   0  0  0  0  0  0  0  0  0  0  0  0
    0.9920    2.0300    2.4740 H   0  0  0  0  0  0  0  0  0  0  0  0
   -1.2310   -2.5570    2.4880 H   0  0  0  0  0  0  0  0  0  0  0  0
   -1.9400   -3.9250    1.6070 H   0  0  0  0  0  0  0  0  0  0  0  0
   -2.9290   -3.0070    2.7590 H   0  0  0  0  0  0  0  0  0  0  0  0
    0.1510    1.2420   -2.9770 H   0  0  0  0  0  0  0  0  0  0  0  0
    4.4420    2.6630    0.8810 H   0  0  0  0  0  0  0  0  0  0  0  0
    3.1590    2.4340    2.0420 H   0  0  0  0  0  0  0  0  0  0  0  0
    1.8040    3.8740   -1.3180 H   0  0  0  0  0  0  0  0  0  0  0  0
    3.4830    3.9910   -0.8340 H   0  0  0  0  0  0  0  0  0  0  0  0
    2.2040    4.3050    0.3440 H   0  0  0  0  0  0  0  0  0  0  0  0
    2.3190    0.2920   -4.1920 H   0  0  0  0  0  0  0  0  0  0  0  0
    3.6970    1.3010   -3.7280 H   0  0  0  0  0  0  0  0  0  0  0  0
    2.2110    2.0630   -4.2810 H   0  0  0  0  0  0  0  0  0  0  0  0
    4.0280   -0.2900   -1.8720 H   0  0  0  0  0  0  0  0  0  0  0  0
    4.8670    0.5990    2.0600 H   0  0  0  0  0  0  0  0  0  0  0  0
    3.2620   -0.0310    1.6700 H   0  0  0  0  0  0  0  0  0  0  0  0
  1  2  1  0  0  0  0
  1  4  1  0  0  0  0
  1  5  1  0  0  0  0
  1  3  1  0  0  0  0
  2  6  1  0  0  0  0
  2  7  1  0  0  0  0
  2  8  1  0  0  0  0
  3  9  1  0  0  0  0
  3 32  1  0  0  0  0
  3 33  1  0  0  0  0
  4 10  1  0  0  0  0
  5 11  1  0  0  0  0
  5 12  2  0  0  0  0
  6 13  1  0  0  0  0
  6 29  1  0  0  0  0
  6  9  1  0  0  0  0
  7 35  1  0  0  0  0
  7 34  1  0  0  0  0
  7 14  1  0  0  0  0
  8 38  1  0  0  0  0
  8 36  1  0  0  0  0
  8 37  1  0  0  0  0
  9 39  1  0  0  0  0
  9 40  1  0  0  0  0
 10 15  1  0  0  0  0
 10 16  2  0  0  0  0
 11 43  1  0  0  0  0
 11 42  1  0  0  0  0
 11 41  1  0  0  0  0
 13 17  1  0  0  0  0
 13 18  1  0  0  0  0
 13 30  1  0  0  0  0
 14 45  1  0  0  0  0
 14 17  1  0  0  0  0
 14 44  1  0  0  0  0
 15 46  1  0  0  0  0
 15 48  1  0  0  0  0
 15 47  1  0  0  0  0
 17 19  1  0  0  0  0
 17 31  1  0  0  0  0
 18 20  1  0  0  0  0
 18 49  1  0  0  0  0
 19 23  1  0  0  0  0
 19 22  1  0  0  0  0
 19 21  1  0  0  0  0
 20 24  1  0  0  0  0
 20 21  1  0  0  0  0
 21 25  2  0  0  0  0
 22 26  1  0  0  0  0
 22 51  1  0  0  0  0
 22 50  1  0  0  0  0
 23 54  1  0  0  0  0
 23 52  1  0  0  0  0
 23 53  1  0  0  0  0
 24 55  1  0  0  0  0
 24 56  1  0  0  0  0
 24 57  1  0  0  0  0
 25 27  1  0  0  0  0
 25 58  1  0  0  0  0
 26 60  1  0  0  0  0
 26 59  1  0  0  0  0
 26 27  1  0  0  0  0
 27 28  2  0  0  0  0
M  END
