decoy-897
 OpenBabel06062114513D

 52 53  0  0  0  0  0  0  0  0999 V2000
    1.6610    1.1890   -0.6760 C   0  0  0  0  0  0  0  0  0  0  0  0
    1.8530    0.0500   -1.4450 C   0  0  0  0  0  0  0  0  0  0  0  0
    1.0800    1.1040    0.6060 C   0  0  0  0  0  0  0  0  0  0  0  0
    2.0500    2.4590   -1.1490 C   0  0  0  0  0  0  0  0  0  0  0  0
    1.3710   -0.0660   -2.7410 C   0  0  0  0  0  0  0  0  0  0  0  0
    2.4710   -0.8900   -0.9600 O   0  0  0  0  0  0  0  0  0  0  0  0
    0.8850    2.2610    1.3820 C   0  0  0  0  0  0  0  0  0  0  0  0
    1.8470    3.6100   -0.3660 C   0  0  0  0  0  0  0  0  0  0  0  0
    2.2310   -0.4150   -3.8010 C   0  0  0  0  0  0  0  0  0  0  0  0
    0.0120    0.1600   -3.0360 C   0  0  0  0  0  0  0  0  0  0  0  0
    1.2450    3.5590    0.9230 C   0  0  0  0  0  0  0  0  0  0  0  0
    1.7420   -0.5270   -5.1160 C   0  0  0  0  0  0  0  0  0  0  0  0
   -0.4650    0.0430   -4.3540 C   0  0  0  0  0  0  0  0  0  0  0  0
    1.0380    4.6910    1.6980 N   0  0  0  0  0  0  0  0  0  0  0  0
    0.3740   -0.3040   -5.4530 C   0  0  0  0  0  0  0  0  0  0  0  0
    0.8170    6.0140    1.1170 C   0  0  0  0  0  0  0  0  0  0  0  0
    1.0230    4.6230    3.1590 C   0  0  0  0  0  0  0  0  0  0  0  0
   -0.1040   -0.4170   -6.7560 N   0  0  0  0  0  0  0  0  0  0  0  0
   -0.6320    6.5210    1.3230 C   0  0  0  0  0  0  0  0  0  0  0  0
    2.3640    4.1340    3.7590 C   0  0  0  0  0  0  0  0  0  0  0  0
   -1.5210   -0.2820   -7.0880 C   0  0  0  0  0  0  0  0  0  0  0  0
    0.7730   -0.6800   -7.8960 C   0  0  0  0  0  0  0  0  0  0  0  0
   -1.9470    1.1950   -7.2550 C   0  0  0  0  0  0  0  0  0  0  0  0
    1.0720   -2.1870   -8.0720 C   0  0  0  0  0  0  0  0  0  0  0  0
    0.7840    0.1990    0.9810 H   0  0  0  0  0  0  0  0  0  0  0  0
    2.5010    2.5550   -2.0640 H   0  0  0  0  0  0  0  0  0  0  0  0
    0.4340    2.1310    2.2870 H   0  0  0  0  0  0  0  0  0  0  0  0
    2.2180    4.4820   -0.7400 H   0  0  0  0  0  0  0  0  0  0  0  0
    3.2260   -0.5860   -3.6260 H   0  0  0  0  0  0  0  0  0  0  0  0
   -0.6440    0.4120   -2.2910 H   0  0  0  0  0  0  0  0  0  0  0  0
    2.4260   -0.7920   -5.8220 H   0  0  0  0  0  0  0  0  0  0  0  0
   -1.4570    0.2340   -4.4850 H   0  0  0  0  0  0  0  0  0  0  0  0
    1.5180    6.7290    1.5570 H   0  0  0  0  0  0  0  0  0  0  0  0
    0.9750    6.0560    0.0420 H   0  0  0  0  0  0  0  0  0  0  0  0
    0.8450    5.6040    3.6100 H   0  0  0  0  0  0  0  0  0  0  0  0
    0.2060    3.9900    3.5090 H   0  0  0  0  0  0  0  0  0  0  0  0
   -0.7640    7.4800    0.8180 H   0  0  0  0  0  0  0  0  0  0  0  0
   -1.3400    5.8060    0.9020 H   0  0  0  0  0  0  0  0  0  0  0  0
   -0.8610    6.6610    2.3800 H   0  0  0  0  0  0  0  0  0  0  0  0
    2.3170    4.1680    4.8490 H   0  0  0  0  0  0  0  0  0  0  0  0
    2.5810    3.1090    3.4590 H   0  0  0  0  0  0  0  0  0  0  0  0
    3.1790    4.7790    3.4250 H   0  0  0  0  0  0  0  0  0  0  0  0
   -1.7640   -0.7950   -8.0240 H   0  0  0  0  0  0  0  0  0  0  0  0
   -2.1500   -0.7750   -6.3450 H   0  0  0  0  0  0  0  0  0  0  0  0
    0.3280   -0.3280   -8.8320 H   0  0  0  0  0  0  0  0  0  0  0  0
    1.7040   -0.1160   -7.8170 H   0  0  0  0  0  0  0  0  0  0  0  0
   -3.0130    1.2490   -7.4840 H   0  0  0  0  0  0  0  0  0  0  0  0
   -1.7590    1.7660   -6.3450 H   0  0  0  0  0  0  0  0  0  0  0  0
   -1.3920    1.6550   -8.0750 H   0  0  0  0  0  0  0  0  0  0  0  0
    1.7420   -2.3330   -8.9210 H   0  0  0  0  0  0  0  0  0  0  0  0
    1.5450   -2.6020   -7.1820 H   0  0  0  0  0  0  0  0  0  0  0  0
    0.1460   -2.7330   -8.2620 H   0  0  0  0  0  0  0  0  0  0  0  0
  1  3  2  0  0  0  0
  1  2  1  0  0  0  0
  1  4  1  0  0  0  0
  2  6  2  0  0  0  0
  2  5  1  0  0  0  0
  3 25  1  0  0  0  0
  3  7  1  0  0  0  0
  4  8  2  0  0  0  0
  4 26  1  0  0  0  0
  5  9  2  0  0  0  0
  5 10  1  0  0  0  0
  7 27  1  0  0  0  0
  7 11  2  0  0  0  0
  8 11  1  0  0  0  0
  8 28  1  0  0  0  0
  9 29  1  0  0  0  0
  9 12  1  0  0  0  0
 10 30  1  0  0  0  0
 10 13  2  0  0  0  0
 11 14  1  0  0  0  0
 12 15  2  0  0  0  0
 12 31  1  0  0  0  0
 13 15  1  0  0  0  0
 13 32  1  0  0  0  0
 14 17  1  0  0  0  0
 14 16  1  0  0  0  0
 15 18  1  0  0  0  0
 16 19  1  0  0  0  0
 16 33  1  0  0  0  0
 16 34  1  0  0  0  0
 17 36  1  0  0  0  0
 17 35  1  0  0  0  0
 17 20  1  0  0  0  0
 18 21  1  0  0  0  0
 18 22  1  0  0  0  0
 19 39  1  0  0  0  0
 19 37  1  0  0  0  0
 19 38  1  0  0  0  0
 20 40  1  0  0  0  0
 20 41  1  0  0  0  0
 20 42  1  0  0  0  0
 21 44  1  0  0  0  0
 21 23  1  0  0  0  0
 21 43  1  0  0  0  0
 22 46  1  0  0  0  0
 22 24  1  0  0  0  0
 22 45  1  0  0  0  0
 23 48  1  0  0  0  0
 23 47  1  0  0  0  0
 23 49  1  0  0  0  0
 24 51  1  0  0  0  0
 24 50  1  0  0  0  0
 24 52  1  0  0  0  0
M  END
