decoy-1061
 OpenBabel06062114513D

 41 42  0  0  0  0  0  0  0  0999 V2000
   -2.1910   -0.1810    1.8320 C   0  0  0  0  0  0  0  0  0  0  0  0
   -2.5830   -0.2260    0.3910 C   0  0  0  0  0  0  0  0  0  0  0  0
   -2.7600   -1.0830    2.7650 C   0  0  0  0  0  0  0  0  0  0  0  0
   -1.2510    0.7680    2.3070 C   0  0  0  0  0  0  0  0  0  0  0  0
   -1.4250   -0.4120   -0.4230 N   0  0  0  0  0  0  0  0  0  0  0  0
   -3.3280    1.0560   -0.0540 C   0  0  0  0  0  0  0  0  0  0  0  0
   -2.4180   -1.0250    4.1280 C   0  0  0  0  0  0  0  0  0  0  0  0
   -0.9040    0.8230    3.6700 C   0  0  0  0  0  0  0  0  0  0  0  0
   -1.1530   -1.7940   -1.3470 S   0  0  0  0  0  0  0  0  0  0  0  0
   -1.4920   -0.0700    4.5820 C   0  0  0  0  0  0  0  0  0  0  0  0
   -0.6970   -3.1150   -0.4060 N   0  0  0  0  0  0  0  0  0  0  0  0
   -2.4470   -2.1530   -2.1980 O   0  0  0  0  0  0  0  0  0  0  0  0
   -0.0520   -1.5000   -2.4560 O   0  0  0  0  0  0  0  0  0  0  0  0
    0.5980   -3.2540    0.1770 C   0  0  0  0  0  0  0  0  0  0  0  0
    0.4950   -3.2030    1.6670 C   0  0  0  0  0  0  0  0  0  0  0  0
    1.2500   -4.5680   -0.3200 C   0  0  0  0  0  0  0  0  0  0  0  0
    1.2300   -2.2460    2.4090 C   0  0  0  0  0  0  0  0  0  0  0  0
   -0.3280   -4.1120    2.3770 C   0  0  0  0  0  0  0  0  0  0  0  0
    1.1610   -2.2120    3.8140 C   0  0  0  0  0  0  0  0  0  0  0  0
   -0.4020   -4.0760    3.7820 C   0  0  0  0  0  0  0  0  0  0  0  0
    0.3470   -3.1290    4.5010 C   0  0  0  0  0  0  0  0  0  0  0  0
   -3.2760   -1.0580    0.2260 H   0  0  0  0  0  0  0  0  0  0  0  0
   -3.4380   -1.7860    2.4600 H   0  0  0  0  0  0  0  0  0  0  0  0
   -0.8120    1.4280    1.6620 H   0  0  0  0  0  0  0  0  0  0  0  0
   -0.7340    0.2690   -0.4050 H   0  0  0  0  0  0  0  0  0  0  0  0
   -4.2120    1.2150    0.5670 H   0  0  0  0  0  0  0  0  0  0  0  0
   -2.6840    1.9350    0.0220 H   0  0  0  0  0  0  0  0  0  0  0  0
   -3.6530    0.9570   -1.0920 H   0  0  0  0  0  0  0  0  0  0  0  0
   -2.8410   -1.6800    4.7900 H   0  0  0  0  0  0  0  0  0  0  0  0
   -0.2250    1.5130    3.9970 H   0  0  0  0  0  0  0  0  0  0  0  0
   -1.2400   -0.0310    5.5720 H   0  0  0  0  0  0  0  0  0  0  0  0
   -1.3670   -3.7880   -0.2080 H   0  0  0  0  0  0  0  0  0  0  0  0
    1.2410   -2.4400   -0.1740 H   0  0  0  0  0  0  0  0  0  0  0  0
    2.2400   -4.6910    0.1260 H   0  0  0  0  0  0  0  0  0  0  0  0
    0.6390   -5.4360   -0.0620 H   0  0  0  0  0  0  0  0  0  0  0  0
    1.3660   -4.5390   -1.4060 H   0  0  0  0  0  0  0  0  0  0  0  0
    1.8310   -1.5690    1.9330 H   0  0  0  0  0  0  0  0  0  0  0  0
   -0.8800   -4.8110    1.8750 H   0  0  0  0  0  0  0  0  0  0  0  0
    1.7010   -1.5180    4.3360 H   0  0  0  0  0  0  0  0  0  0  0  0
   -1.0000   -4.7390    4.2800 H   0  0  0  0  0  0  0  0  0  0  0  0
    0.2940   -3.1020    5.5220 H   0  0  0  0  0  0  0  0  0  0  0  0
  1  4  2  0  0  0  0
  1  3  1  0  0  0  0
  1  2  1  0  0  0  0
  2 22  1  0  0  0  0
  2  5  1  0  0  0  0
  2  6  1  0  0  0  0
  3  7  2  0  0  0  0
  3 23  1  0  0  0  0
  4  8  1  0  0  0  0
  4 24  1  0  0  0  0
  5 25  1  0  0  0  0
  5  9  1  0  0  0  0
  6 27  1  0  0  0  0
  6 26  1  0  0  0  0
  6 28  1  0  0  0  0
  7 10  1  0  0  0  0
  7 29  1  0  0  0  0
  8 30  1  0  0  0  0
  8 10  2  0  0  0  0
  9 11  1  0  0  0  0
  9 12  2  0  0  0  0
  9 13  2  0  0  0  0
 10 31  1  0  0  0  0
 11 32  1  0  0  0  0
 11 14  1  0  0  0  0
 14 33  1  0  0  0  0
 14 15  1  0  0  0  0
 14 16  1  0  0  0  0
 15 18  2  0  0  0  0
 15 17  1  0  0  0  0
 16 35  1  0  0  0  0
 16 34  1  0  0  0  0
 16 36  1  0  0  0  0
 17 19  2  0  0  0  0
 17 37  1  0  0  0  0
 18 20  1  0  0  0  0
 18 38  1  0  0  0  0
 19 39  1  0  0  0  0
 19 21  1  0  0  0  0
 20 40  1  0  0  0  0
 20 21  2  0  0  0  0
 21 41  1  0  0  0  0
M  END
