decoy-722
 OpenBabel06062114513D

 84 89  0  0  0  0  0  0  0  0999 V2000
   -0.2240    1.3660   -0.2420 C   0  0  0  0  0  0  0  0  0  0  0  0
   -0.1410   -0.1380   -0.0320 C   0  0  0  0  0  0  0  0  0  0  0  0
    1.1120    2.0580   -0.0460 C   0  0  0  0  0  0  0  0  0  0  0  0
   -0.6650    1.8510   -1.6110 C   0  0  0  0  0  0  0  0  0  0  0  0
   -1.1100    1.8370    0.8190 O   0  0  0  0  0  0  0  0  0  0  0  0
   -0.8260   -1.0720   -0.8530 C   0  0  0  0  0  0  0  0  0  0  0  0
    0.5200   -0.6530    1.1160 C   0  0  0  0  0  0  0  0  0  0  0  0
    1.1910    3.3550    0.5300 C   0  0  0  0  0  0  0  0  0  0  0  0
    2.3290    1.4800   -0.4990 C   0  0  0  0  0  0  0  0  0  0  0  0
   -1.5760    2.9300   -1.7650 C   0  0  0  0  0  0  0  0  0  0  0  0
   -0.0850    1.3270   -2.7980 C   0  0  0  0  0  0  0  0  0  0  0  0
   -2.4500    1.3180    0.9950 C   0  0  0  0  0  0  0  0  0  0  0  0
   -0.7770   -2.4540   -0.5930 C   0  0  0  0  0  0  0  0  0  0  0  0
    0.5740   -2.0330    1.3790 C   0  0  0  0  0  0  0  0  0  0  0  0
    2.4210    4.0220    0.6790 C   0  0  0  0  0  0  0  0  0  0  0  0
    3.5610    2.1420   -0.3520 C   0  0  0  0  0  0  0  0  0  0  0  0
   -1.9420    3.4120   -3.0350 C   0  0  0  0  0  0  0  0  0  0  0  0
   -0.4470    1.8040   -4.0710 C   0  0  0  0  0  0  0  0  0  0  0  0
   -3.2240    2.2410    1.9630 C   0  0  0  0  0  0  0  0  0  0  0  0
   -0.0560   -2.9430    0.5110 C   0  0  0  0  0  0  0  0  0  0  0  0
    3.6110    3.4230    0.2280 C   0  0  0  0  0  0  0  0  0  0  0  0
   -1.3830    2.8430   -4.1900 C   0  0  0  0  0  0  0  0  0  0  0  0
   -3.3390    3.5580    1.4120 O   0  0  0  0  0  0  0  0  0  0  0  0
   -4.6800    1.8040    2.2290 C   0  0  0  0  0  0  0  0  0  0  0  0
   -0.0360   -4.2830    0.7840 O   0  0  0  0  0  0  0  0  0  0  0  0
    4.8110    4.0580    0.3960 O   0  0  0  0  0  0  0  0  0  0  0  0
   -4.3730    4.2250    2.1500 C   0  0  0  0  0  0  0  0  0  0  0  0
   -5.4160    3.1320    2.4850 C   0  0  0  0  0  0  0  0  0  0  0  0
   -4.7760    0.9060    3.3330 O   0  0  0  0  0  0  0  0  0  0  0  0
    1.0700   -4.9680    0.1720 C   0  0  0  0  0  0  0  0  0  0  0  0
    5.1730    4.8890   -0.7200 C   0  0  0  0  0  0  0  0  0  0  0  0
   -4.9310    5.3430    1.4400 N   0  0  0  0  0  0  0  0  0  0  0  0
   -5.8400    6.2070    1.9260 C   0  0  0  0  0  0  0  0  0  0  0  0
   -4.6580    5.7490    0.1790 C   0  0  0  0  0  0  0  0  0  0  0  0
   -6.1140    7.1410    0.9320 C   0  0  0  0  0  0  0  0  0  0  0  0
   -6.4670    6.2830    3.1350 N   0  0  0  0  0  0  0  0  0  0  0  0
   -5.3730    6.8430   -0.1440 N   0  0  0  0  0  0  0  0  0  0  0  0
   -7.0310    8.1440    1.1920 C   0  0  0  0  0  0  0  0  0  0  0  0
   -7.3700    7.2790    3.3730 C   0  0  0  0  0  0  0  0  0  0  0  0
   -7.6260    8.1890    2.3850 N   0  0  0  0  0  0  0  0  0  0  0  0
   -7.2990    8.9830    0.3470 O   0  0  0  0  0  0  0  0  0  0  0  0
   -8.0370    7.4260    4.5420 N   0  0  0  0  0  0  0  0  0  0  0  0
   -7.9700    6.6830    5.6430 C   0  0  0  0  0  0  0  0  0  0  0  0
   -8.7990    7.0600    6.7900 C   0  0  0  0  0  0  0  0  0  0  0  0
   -7.2340    5.7050    5.7070 O   0  0  0  0  0  0  0  0  0  0  0  0
   -8.9190    5.9600    7.8850 C   0  0  0  0  0  0  0  0  0  0  0  0
   -8.3000    8.3920    7.4160 C   0  0  0  0  0  0  0  0  0  0  0  0
   -1.3970   -0.7570   -1.6380 H   0  0  0  0  0  0  0  0  0  0  0  0
    0.9720   -0.0170    1.7780 H   0  0  0  0  0  0  0  0  0  0  0  0
    0.3460    3.8390    0.8420 H   0  0  0  0  0  0  0  0  0  0  0  0
    2.3310    0.5590   -0.9420 H   0  0  0  0  0  0  0  0  0  0  0  0
   -1.9720    3.3990   -0.9500 H   0  0  0  0  0  0  0  0  0  0  0  0
    0.6100    0.5790   -2.7460 H   0  0  0  0  0  0  0  0  0  0  0  0
   -2.9770    1.2640    0.0400 H   0  0  0  0  0  0  0  0  0  0  0  0
   -2.4050    0.3160    1.4260 H   0  0  0  0  0  0  0  0  0  0  0  0
   -1.2790   -3.1030   -1.2030 H   0  0  0  0  0  0  0  0  0  0  0  0
    1.0650   -2.3740    2.2090 H   0  0  0  0  0  0  0  0  0  0  0  0
    2.4470    4.9500    1.1070 H   0  0  0  0  0  0  0  0  0  0  0  0
    4.4210    1.6930   -0.6750 H   0  0  0  0  0  0  0  0  0  0  0  0
   -2.6060    4.1860   -3.1180 H   0  0  0  0  0  0  0  0  0  0  0  0
   -0.0240    1.3990   -4.9100 H   0  0  0  0  0  0  0  0  0  0  0  0
   -2.6710    2.2970    2.9090 H   0  0  0  0  0  0  0  0  0  0  0  0
   -1.6440    3.1950   -5.1140 H   0  0  0  0  0  0  0  0  0  0  0  0
   -5.1050    1.3180    1.3460 H   0  0  0  0  0  0  0  0  0  0  0  0
   -3.9260    4.6020    3.0780 H   0  0  0  0  0  0  0  0  0  0  0  0
   -6.2940    3.2040    1.8360 H   0  0  0  0  0  0  0  0  0  0  0  0
   -5.7410    3.2200    3.5250 H   0  0  0  0  0  0  0  0  0  0  0  0
   -4.2660    0.1140    3.0610 H   0  0  0  0  0  0  0  0  0  0  0  0
    1.0080   -6.0220    0.4400 H   0  0  0  0  0  0  0  0  0  0  0  0
    1.0320   -4.8900   -0.9180 H   0  0  0  0  0  0  0  0  0  0  0  0
    2.0260   -4.5800    0.5320 H   0  0  0  0  0  0  0  0  0  0  0  0
    6.1350    5.3520   -0.5020 H   0  0  0  0  0  0  0  0  0  0  0  0
    5.2780    4.3010   -1.6360 H   0  0  0  0  0  0  0  0  0  0  0  0
    4.4400    5.6830   -0.8790 H   0  0  0  0  0  0  0  0  0  0  0  0
   -4.0020    5.2970   -0.4600 H   0  0  0  0  0  0  0  0  0  0  0  0
   -8.2690    8.8950    2.5590 H   0  0  0  0  0  0  0  0  0  0  0  0
   -8.6500    8.1780    4.5800 H   0  0  0  0  0  0  0  0  0  0  0  0
   -9.8150    7.2300    6.4170 H   0  0  0  0  0  0  0  0  0  0  0  0
   -9.6120    6.2770    8.6670 H   0  0  0  0  0  0  0  0  0  0  0  0
   -9.3010    5.0340    7.4500 H   0  0  0  0  0  0  0  0  0  0  0  0
   -7.9480    5.7590    8.3420 H   0  0  0  0  0  0  0  0  0  0  0  0
   -8.3080    9.1960    6.6770 H   0  0  0  0  0  0  0  0  0  0  0  0
   -8.9500    8.6920    8.2410 H   0  0  0  0  0  0  0  0  0  0  0  0
   -7.2830    8.2810    7.7990 H   0  0  0  0  0  0  0  0  0  0  0  0
  1  3  1  0  0  0  0
  1  2  1  0  0  0  0
  1  5  1  0  0  0  0
  1  4  1  0  0  0  0
  2  7  2  0  0  0  0
  2  6  1  0  0  0  0
  3  8  2  0  0  0  0
  3  9  1  0  0  0  0
  4 10  2  0  0  0  0
  4 11  1  0  0  0  0
  5 12  1  0  0  0  0
  6 13  2  0  0  0  0
  6 48  1  0  0  0  0
  7 14  1  0  0  0  0
  7 49  1  0  0  0  0
  8 15  1  0  0  0  0
  8 50  1  0  0  0  0
  9 16  2  0  0  0  0
  9 51  1  0  0  0  0
 10 52  1  0  0  0  0
 10 17  1  0  0  0  0
 11 53  1  0  0  0  0
 11 18  2  0  0  0  0
 12 55  1  0  0  0  0
 12 19  1  0  0  0  0
 12 54  1  0  0  0  0
 13 20  1  0  0  0  0
 13 56  1  0  0  0  0
 14 57  1  0  0  0  0
 14 20  2  0  0  0  0
 15 58  1  0  0  0  0
 15 21  2  0  0  0  0
 16 21  1  0  0  0  0
 16 59  1  0  0  0  0
 17 22  2  0  0  0  0
 17 60  1  0  0  0  0
 18 22  1  0  0  0  0
 18 61  1  0  0  0  0
 19 24  1  0  0  0  0
 19 62  1  0  0  0  0
 19 23  1  0  0  0  0
 20 25  1  0  0  0  0
 21 26  1  0  0  0  0
 22 63  1  0  0  0  0
 23 27  1  0  0  0  0
 24 64  1  0  0  0  0
 24 28  1  0  0  0  0
 24 29  1  0  0  0  0
 25 30  1  0  0  0  0
 26 31  1  0  0  0  0
 27 28  1  0  0  0  0
 27 65  1  0  0  0  0
 27 32  1  0  0  0  0
 28 67  1  0  0  0  0
 28 66  1  0  0  0  0
 29 68  1  0  0  0  0
 30 69  1  0  0  0  0
 30 71  1  0  0  0  0
 30 70  1  0  0  0  0
 31 72  1  0  0  0  0
 31 73  1  0  0  0  0
 31 74  1  0  0  0  0
 32 33  1  0  0  0  0
 32 34  1  0  0  0  0
 33 36  1  0  0  0  0
 33 35  2  0  0  0  0
 34 37  2  0  0  0  0
 34 75  1  0  0  0  0
 35 38  1  0  0  0  0
 35 37  1  0  0  0  0
 36 39  2  0  0  0  0
 38 40  1  0  0  0  0
 38 41  2  0  0  0  0
 39 42  1  0  0  0  0
 39 40  1  0  0  0  0
 40 76  1  0  0  0  0
 42 77  1  0  0  0  0
 42 43  1  0  0  0  0
 43 45  2  0  0  0  0
 43 44  1  0  0  0  0
 44 47  1  0  0  0  0
 44 46  1  0  0  0  0
 44 78  1  0  0  0  0
 46 81  1  0  0  0  0
 46 79  1  0  0  0  0
 46 80  1  0  0  0  0
 47 84  1  0  0  0  0
 47 83  1  0  0  0  0
 47 82  1  0  0  0  0
M  END
