decoy-186
 OpenBabel06062114503D

 62 66  0  0  0  0  0  0  0  0999 V2000
   -2.7150   -0.2470    1.2610 C   0  0  0  0  0  0  0  0  0  0  0  0
   -1.3810   -1.0790    1.4440 C   0  0  0  0  0  0  0  0  0  0  0  0
   -2.4660    1.0230    2.1360 C   0  0  0  0  0  0  0  0  0  0  0  0
   -2.7980    0.3220   -0.0570 O   0  0  0  0  0  0  0  0  0  0  0  0
   -3.9830   -0.9710    1.5000 C   0  0  0  0  0  0  0  0  0  0  0  0
   -0.3220    0.0730    1.4730 C   0  0  0  0  0  0  0  0  0  0  0  0
   -0.9680   -2.0230    0.2560 C   0  0  0  0  0  0  0  0  0  0  0  0
   -1.4800   -1.9050    2.7870 C   0  0  0  0  0  0  0  0  0  0  0  0
   -0.9420    1.1190    2.4190 C   0  0  0  0  0  0  0  0  0  0  0  0
   -2.9430    2.1460    1.3930 O   0  0  0  0  0  0  0  0  0  0  0  0
   -3.1920    1.6990    0.0560 C   0  0  0  0  0  0  0  0  0  0  0  0
   -4.4620   -2.0230    0.6150 C   0  0  0  0  0  0  0  0  0  0  0  0
   -4.7030   -0.6480    2.4370 O   0  0  0  0  0  0  0  0  0  0  0  0
    1.1560   -0.4060    1.6730 C   0  0  0  0  0  0  0  0  0  0  0  0
    0.5160   -2.5210    0.2900 C   0  0  0  0  0  0  0  0  0  0  0  0
   -4.7020    1.8570   -0.2670 C   0  0  0  0  0  0  0  0  0  0  0  0
   -2.3360    2.5410   -0.9230 C   0  0  0  0  0  0  0  0  0  0  0  0
   -5.8280   -2.3750    0.8320 O   0  0  0  0  0  0  0  0  0  0  0  0
    1.5890   -1.3790    0.4990 C   0  0  0  0  0  0  0  0  0  0  0  0
    2.1440    0.7960    1.7890 C   0  0  0  0  0  0  0  0  0  0  0  0
    0.6390   -3.5870    1.2270 O   0  0  0  0  0  0  0  0  0  0  0  0
    3.1170   -1.8330    0.6360 C   0  0  0  0  0  0  0  0  0  0  0  0
    1.5210   -0.6420   -0.6780 F   0  0  0  0  0  0  0  0  0  0  0  0
    3.6210    0.3370    1.8910 C   0  0  0  0  0  0  0  0  0  0  0  0
    3.9520   -0.5910    0.7930 C   0  0  0  0  0  0  0  0  0  0  0  0
    3.5100   -2.6200   -0.5610 C   0  0  0  0  0  0  0  0  0  0  0  0
    3.4310   -2.7760    1.8550 C   0  0  0  0  0  0  0  0  0  0  0  0
    4.4070    1.4700    1.9740 F   0  0  0  0  0  0  0  0  0  0  0  0
    4.9400   -0.3100   -0.0910 C   0  0  0  0  0  0  0  0  0  0  0  0
    4.5070   -2.2530   -1.3820 C   0  0  0  0  0  0  0  0  0  0  0  0
    5.2180   -1.1220   -1.1490 C   0  0  0  0  0  0  0  0  0  0  0  0
    6.1260   -0.8220   -1.9150 O   0  0  0  0  0  0  0  0  0  0  0  0
   -0.3190    0.5630    0.4930 H   0  0  0  0  0  0  0  0  0  0  0  0
    1.2130   -0.9390    2.6210 H   0  0  0  0  0  0  0  0  0  0  0  0
   -2.9930    1.0000    3.0930 H   0  0  0  0  0  0  0  0  0  0  0  0
   -1.6200   -2.8960    0.2220 H   0  0  0  0  0  0  0  0  0  0  0  0
   -1.1150   -1.4940   -0.6890 H   0  0  0  0  0  0  0  0  0  0  0  0
   -1.9060   -1.3120    3.5970 H   0  0  0  0  0  0  0  0  0  0  0  0
   -0.5210   -2.2630    3.1420 H   0  0  0  0  0  0  0  0  0  0  0  0
   -2.1220   -2.7770    2.6510 H   0  0  0  0  0  0  0  0  0  0  0  0
   -0.5580    2.1230    2.2170 H   0  0  0  0  0  0  0  0  0  0  0  0
   -0.7210    0.8660    3.4590 H   0  0  0  0  0  0  0  0  0  0  0  0
   -4.3750   -1.7070   -0.4260 H   0  0  0  0  0  0  0  0  0  0  0  0
   -3.8680   -2.9230    0.7570 H   0  0  0  0  0  0  0  0  0  0  0  0
    0.6950   -2.9930   -0.6800 H   0  0  0  0  0  0  0  0  0  0  0  0
   -4.9190    1.4740   -1.2660 H   0  0  0  0  0  0  0  0  0  0  0  0
   -4.9950    2.9080   -0.2220 H   0  0  0  0  0  0  0  0  0  0  0  0
   -5.3090    1.3060    0.4520 H   0  0  0  0  0  0  0  0  0  0  0  0
   -1.2770    2.4540   -0.6770 H   0  0  0  0  0  0  0  0  0  0  0  0
   -2.6140    3.5960   -0.8640 H   0  0  0  0  0  0  0  0  0  0  0  0
   -2.4810    2.1980   -1.9490 H   0  0  0  0  0  0  0  0  0  0  0  0
   -5.8600   -2.7160    1.7510 H   0  0  0  0  0  0  0  0  0  0  0  0
    2.0320    1.4530    0.9210 H   0  0  0  0  0  0  0  0  0  0  0  0
    1.9000    1.3810    2.6800 H   0  0  0  0  0  0  0  0  0  0  0  0
    0.7710   -3.1620    2.0960 H   0  0  0  0  0  0  0  0  0  0  0  0
    3.7640   -0.1780    2.8430 H   0  0  0  0  0  0  0  0  0  0  0  0
    3.0360   -3.4720   -0.7610 H   0  0  0  0  0  0  0  0  0  0  0  0
    3.0010   -2.4040    2.7830 H   0  0  0  0  0  0  0  0  0  0  0  0
    4.5110   -2.8650    2.0030 H   0  0  0  0  0  0  0  0  0  0  0  0
    3.0520   -3.7890    1.7080 H   0  0  0  0  0  0  0  0  0  0  0  0
    5.4810    0.5180    0.0110 H   0  0  0  0  0  0  0  0  0  0  0  0
    4.7290   -2.8290   -2.1630 H   0  0  0  0  0  0  0  0  0  0  0  0
  1  2  1  0  0  0  0
  1  5  1  0  0  0  0
  1  3  1  0  0  0  0
  1  4  1  0  0  0  0
  2  6  1  0  0  0  0
  2  8  1  0  0  0  0
  2  7  1  0  0  0  0
  3  9  1  0  0  0  0
  3 35  1  0  0  0  0
  3 10  1  0  0  0  0
  4 11  1  0  0  0  0
  5 13  2  0  0  0  0
  5 12  1  0  0  0  0
  6 14  1  0  0  0  0
  6  9  1  0  0  0  0
  6 33  1  0  0  0  0
  7 15  1  0  0  0  0
  7 36  1  0  0  0  0
  7 37  1  0  0  0  0
  8 39  1  0  0  0  0
  8 38  1  0  0  0  0
  8 40  1  0  0  0  0
  9 42  1  0  0  0  0
  9 41  1  0  0  0  0
 10 11  1  0  0  0  0
 11 16  1  0  0  0  0
 11 17  1  0  0  0  0
 12 44  1  0  0  0  0
 12 18  1  0  0  0  0
 12 43  1  0  0  0  0
 14 19  1  0  0  0  0
 14 20  1  0  0  0  0
 14 34  1  0  0  0  0
 15 19  1  0  0  0  0
 15 21  1  0  0  0  0
 15 45  1  0  0  0  0
 16 47  1  0  0  0  0
 16 48  1  0  0  0  0
 16 46  1  0  0  0  0
 17 50  1  0  0  0  0
 17 49  1  0  0  0  0
 17 51  1  0  0  0  0
 18 52  1  0  0  0  0
 19 22  1  0  0  0  0
 19 23  1  0  0  0  0
 20 24  1  0  0  0  0
 20 54  1  0  0  0  0
 20 53  1  0  0  0  0
 21 55  1  0  0  0  0
 22 25  1  0  0  0  0
 22 27  1  0  0  0  0
 22 26  1  0  0  0  0
 24 28  1  0  0  0  0
 24 56  1  0  0  0  0
 24 25  1  0  0  0  0
 25 29  2  0  0  0  0
 26 30  2  0  0  0  0
 26 57  1  0  0  0  0
 27 59  1  0  0  0  0
 27 58  1  0  0  0  0
 27 60  1  0  0  0  0
 29 61  1  0  0  0  0
 29 31  1  0  0  0  0
 30 31  1  0  0  0  0
 30 62  1  0  0  0  0
 31 32  2  0  0  0  0
M  END
