
  ACD/Labs06062114563D

 36 39  0  0  0  0  0  0  0  0  1 V2000
   19.8530   -8.0818    0.4802 C   0  0  0  0  0  0  0  0  0  0  0  0
   18.6901   -8.8893    0.5314 C   0  0  0  0  0  0  0  0  0  0  0  0
   21.0910   -8.6471    0.3767 C   0  0  0  0  0  0  0  0  0  0  0  0
   19.7047   -6.6932    0.5386 C   0  0  0  0  0  0  0  0  0  0  0  0
   18.8691  -10.2963    0.4700 C   0  0  0  0  0  0  0  0  0  0  0  0
   17.3604   -8.3969    0.6376 C   0  0  0  0  0  0  0  0  0  0  0  0
   21.1900  -10.0408    0.3222 C   0  0  0  0  0  0  0  0  0  0  0  0
   22.2831   -7.9258    0.3214 C   0  0  0  0  0  0  0  0  0  0  0  0
   19.5466   -5.9406   -0.6477 C   0  0  0  0  0  0  0  0  0  0  0  0
   19.7111   -6.0251    1.7856 C   0  0  0  0  0  0  0  0  0  0  0  0
   20.1169  -10.8581    0.3656 O   0  0  0  0  0  0  0  0  0  0  0  0
   17.7650  -11.1695    0.5144 C   0  0  0  0  0  0  0  0  0  0  0  0
   16.2555   -9.2708    0.6821 C   0  0  0  0  0  0  0  0  0  0  0  0
   22.3939  -10.6459    0.2199 C   0  0  0  0  0  0  0  0  0  0  0  0
   23.4826   -8.5402    0.2185 C   0  0  0  0  0  0  0  0  0  0  0  0
   19.3964   -4.5424   -0.5871 C   0  0  0  0  0  0  0  0  0  0  0  0
   19.5606   -4.6269    1.8422 C   0  0  0  0  0  0  0  0  0  0  0  0
   16.4585  -10.6615    0.6203 C   0  0  0  0  0  0  0  0  0  0  0  0
   14.9935   -8.7798    0.7846 O   0  0  0  0  0  0  0  0  0  0  0  0
   23.5429   -9.9079    0.1678 C   0  0  0  0  0  0  0  0  0  0  0  0
   24.6065   -7.8254    0.1678 O   0  0  0  0  0  0  0  0  0  0  0  0
   19.4036   -3.8859    0.6568 C   0  0  0  0  0  0  0  0  0  0  0  0
   15.3945  -11.5031    0.6629 O   0  0  0  0  0  0  0  0  0  0  0  0
   24.6210  -10.4811    0.0750 O   0  0  0  0  0  0  0  0  0  0  0  0
   17.1795   -7.3927    0.6851 H   0  0  0  0  0  0  0  0  0  0  0  0
   22.2747   -6.9328    0.3570 H   0  0  0  0  0  0  0  0  0  0  0  0
   19.5389   -6.4039   -1.5605 H   0  0  0  0  0  0  0  0  0  0  0  0
   19.8242   -6.5506    2.6564 H   0  0  0  0  0  0  0  0  0  0  0  0
   17.9156  -12.1797    0.4688 H   0  0  0  0  0  0  0  0  0  0  0  0
   22.4449  -11.6398    0.1812 H   0  0  0  0  0  0  0  0  0  0  0  0
   19.2828   -4.0031   -1.4487 H   0  0  0  0  0  0  0  0  0  0  0  0
   19.5662   -4.1484    2.7462 H   0  0  0  0  0  0  0  0  0  0  0  0
   15.0853   -7.8039    0.8124 H   0  0  0  0  0  0  0  0  0  0  0  0
   24.3407   -6.8831    0.2184 H   0  0  0  0  0  0  0  0  0  0  0  0
   19.2945   -2.8701    0.6993 H   0  0  0  0  0  0  0  0  0  0  0  0
   15.7654  -12.4081    0.6061 H   0  0  0  0  0  0  0  0  0  0  0  0
  1  3  2  0  0  0  0
  1  4  1  0  0  0  0
  1  2  1  0  0  0  0
  2  5  2  0  0  0  0
  2  6  1  0  0  0  0
  3  8  1  0  0  0  0
  3  7  1  0  0  0  0
  4 10  2  0  0  0  0
  4  9  1  0  0  0  0
  5 11  1  0  0  0  0
  5 12  1  0  0  0  0
  6 25  1  0  0  0  0
  6 13  2  0  0  0  0
  7 14  2  0  0  0  0
  7 11  1  0  0  0  0
  8 15  2  0  0  0  0
  8 26  1  0  0  0  0
  9 16  2  0  0  0  0
  9 27  1  0  0  0  0
 10 17  1  0  0  0  0
 10 28  1  0  0  0  0
 12 18  2  0  0  0  0
 12 29  1  0  0  0  0
 13 18  1  0  0  0  0
 13 19  1  0  0  0  0
 14 20  1  0  0  0  0
 14 30  1  0  0  0  0
 15 21  1  0  0  0  0
 15 20  1  0  0  0  0
 16 22  1  0  0  0  0
 16 31  1  0  0  0  0
 17 32  1  0  0  0  0
 17 22  2  0  0  0  0
 18 23  1  0  0  0  0
 19 33  1  0  0  0  0
 20 24  2  0  0  0  0
 21 34  1  0  0  0  0
 22 35  1  0  0  0  0
 23 36  1  0  0  0  0
M  END
