decoy-553
 OpenBabel06062114513D

 27 28  0  0  0  0  0  0  0  0999 V2000
    0.5740    1.2930   -0.2650 C   0  0  0  0  0  0  0  0  0  0  0  0
   -1.0010    2.0260   -0.1500 S   0  0  0  0  0  0  0  0  0  0  0  0
    1.2940    1.3200   -1.4780 C   0  0  0  0  0  0  0  0  0  0  0  0
    1.1330    0.6470    0.8580 C   0  0  0  0  0  0  0  0  0  0  0  0
   -2.1500    0.9190    0.3940 N   0  0  0  0  0  0  0  0  0  0  0  0
   -1.5050    2.7480   -1.4740 O   0  0  0  0  0  0  0  0  0  0  0  0
   -0.9160    3.1460    0.9760 O   0  0  0  0  0  0  0  0  0  0  0  0
    2.5600    0.7110   -1.5660 C   0  0  0  0  0  0  0  0  0  0  0  0
    2.3990    0.0370    0.7700 C   0  0  0  0  0  0  0  0  0  0  0  0
   -2.4880   -0.2070   -0.2680 C   0  0  0  0  0  0  0  0  0  0  0  0
    3.1160    0.0680   -0.4430 C   0  0  0  0  0  0  0  0  0  0  0  0
   -3.4250   -1.0180    0.2880 N   0  0  0  0  0  0  0  0  0  0  0  0
   -1.9330   -0.5640   -1.4590 N   0  0  0  0  0  0  0  0  0  0  0  0
    4.3260   -0.5150   -0.5270 N   0  0  0  0  0  0  0  0  0  0  0  0
   -3.8210   -2.1720   -0.3080 C   0  0  0  0  0  0  0  0  0  0  0  0
   -2.2870   -1.7050   -2.1030 C   0  0  0  0  0  0  0  0  0  0  0  0
   -3.2550   -2.5520   -1.5370 C   0  0  0  0  0  0  0  0  0  0  0  0
    0.9030    1.7800   -2.3030 H   0  0  0  0  0  0  0  0  0  0  0  0
    0.6220    0.6140    1.7430 H   0  0  0  0  0  0  0  0  0  0  0  0
   -2.5900    1.1010    1.2390 H   0  0  0  0  0  0  0  0  0  0  0  0
    3.0710    0.7380   -2.4520 H   0  0  0  0  0  0  0  0  0  0  0  0
    2.7920   -0.4280    1.5920 H   0  0  0  0  0  0  0  0  0  0  0  0
    4.7080   -0.9580    0.2470 H   0  0  0  0  0  0  0  0  0  0  0  0
    4.8190   -0.4940   -1.3630 H   0  0  0  0  0  0  0  0  0  0  0  0
   -4.5280   -2.7570    0.1400 H   0  0  0  0  0  0  0  0  0  0  0  0
   -1.8490   -1.9410   -2.9940 H   0  0  0  0  0  0  0  0  0  0  0  0
   -3.5380   -3.4160   -2.0040 H   0  0  0  0  0  0  0  0  0  0  0  0
  1  2  1  0  0  0  0
  1  4  2  0  0  0  0
  1  3  1  0  0  0  0
  2  5  1  0  0  0  0
  2  7  2  0  0  0  0
  2  6  2  0  0  0  0
  3  8  2  0  0  0  0
  3 18  1  0  0  0  0
  4 19  1  0  0  0  0
  4  9  1  0  0  0  0
  5 20  1  0  0  0  0
  5 10  1  0  0  0  0
  8 11  1  0  0  0  0
  8 21  1  0  0  0  0
  9 22  1  0  0  0  0
  9 11  2  0  0  0  0
 10 12  2  0  0  0  0
 10 13  1  0  0  0  0
 11 14  1  0  0  0  0
 12 15  1  0  0  0  0
 13 16  2  0  0  0  0
 14 23  1  0  0  0  0
 14 24  1  0  0  0  0
 15 25  1  0  0  0  0
 15 17  2  0  0  0  0
 16 17  1  0  0  0  0
 16 26  1  0  0  0  0
 17 27  1  0  0  0  0
M  END
