decoy-301
 OpenBabel06062114513D

 45 47  0  0  0  0  0  0  0  0999 V2000
    0.0720    1.4540   -0.0820 C   0  0  0  0  0  0  0  0  0  0  0  0
    0.1030    0.1080   -0.5350 C   0  0  0  0  0  0  0  0  0  0  0  0
    1.2440    1.9350    0.5150 C   0  0  0  0  0  0  0  0  0  0  0  0
   -1.1120    2.2140   -0.2680 C   0  0  0  0  0  0  0  0  0  0  0  0
    1.2490   -0.6530   -0.4030 O   0  0  0  0  0  0  0  0  0  0  0  0
   -1.0360   -0.4770   -1.1280 C   0  0  0  0  0  0  0  0  0  0  0  0
    2.4180    1.2320    0.4410 C   0  0  0  0  0  0  0  0  0  0  0  0
    1.2060    2.9160    1.2470 O   0  0  0  0  0  0  0  0  0  0  0  0
   -2.2450    1.6210   -0.8560 C   0  0  0  0  0  0  0  0  0  0  0  0
   -1.2110    3.5230    0.0820 O   0  0  0  0  0  0  0  0  0  0  0  0
    2.3910   -0.0510    0.0110 C   0  0  0  0  0  0  0  0  0  0  0  0
   -2.2200    0.2750   -1.2690 C   0  0  0  0  0  0  0  0  0  0  0  0
   -1.0160   -1.7620   -1.5700 O   0  0  0  0  0  0  0  0  0  0  0  0
    3.5650    1.7910    0.8780 O   0  0  0  0  0  0  0  0  0  0  0  0
    3.5260   -0.8410   -0.0360 C   0  0  0  0  0  0  0  0  0  0  0  0
   -3.3230   -0.2700   -1.8690 O   0  0  0  0  0  0  0  0  0  0  0  0
    4.2600    2.5580   -0.1220 C   0  0  0  0  0  0  0  0  0  0  0  0
    4.1000   -1.1800   -1.2810 C   0  0  0  0  0  0  0  0  0  0  0  0
    4.1130   -1.3330    1.1510 C   0  0  0  0  0  0  0  0  0  0  0  0
   -4.2360   -0.8720   -0.9350 C   0  0  0  0  0  0  0  0  0  0  0  0
    5.2490   -1.9950   -1.3440 C   0  0  0  0  0  0  0  0  0  0  0  0
    5.2700   -2.1310    1.0920 C   0  0  0  0  0  0  0  0  0  0  0  0
    5.8560   -2.4460   -0.1500 C   0  0  0  0  0  0  0  0  0  0  0  0
    5.8050   -2.2920   -2.5590 O   0  0  0  0  0  0  0  0  0  0  0  0
    6.9710   -3.2390   -0.1930 O   0  0  0  0  0  0  0  0  0  0  0  0
    5.2780   -3.4960   -3.1430 C   0  0  0  0  0  0  0  0  0  0  0  0
    8.1990   -2.4920   -0.1450 C   0  0  0  0  0  0  0  0  0  0  0  0
   -3.0950    2.1730   -0.9900 H   0  0  0  0  0  0  0  0  0  0  0  0
   -0.3160    3.8990   -0.0410 H   0  0  0  0  0  0  0  0  0  0  0  0
   -0.1170   -2.1020   -1.3850 H   0  0  0  0  0  0  0  0  0  0  0  0
    5.1700    2.9550    0.3280 H   0  0  0  0  0  0  0  0  0  0  0  0
    4.5450    1.9380   -0.9760 H   0  0  0  0  0  0  0  0  0  0  0  0
    3.6570    3.4000   -0.4690 H   0  0  0  0  0  0  0  0  0  0  0  0
    3.6860   -0.8360   -2.1520 H   0  0  0  0  0  0  0  0  0  0  0  0
    3.7070   -1.1120    2.0640 H   0  0  0  0  0  0  0  0  0  0  0  0
   -5.0760   -1.2820   -1.4970 H   0  0  0  0  0  0  0  0  0  0  0  0
   -3.7630   -1.6890   -0.3850 H   0  0  0  0  0  0  0  0  0  0  0  0
   -4.6260   -0.1350   -0.2290 H   0  0  0  0  0  0  0  0  0  0  0  0
    5.6890   -2.4790    1.9580 H   0  0  0  0  0  0  0  0  0  0  0  0
    5.7760   -3.6550   -4.1000 H   0  0  0  0  0  0  0  0  0  0  0  0
    5.4730   -4.3650   -2.5090 H   0  0  0  0  0  0  0  0  0  0  0  0
    4.2040   -3.4120   -3.3270 H   0  0  0  0  0  0  0  0  0  0  0  0
    9.0280   -3.1990   -0.1870 H   0  0  0  0  0  0  0  0  0  0  0  0
    8.2860   -1.8140   -0.9970 H   0  0  0  0  0  0  0  0  0  0  0  0
    8.2820   -1.9230    0.7840 H   0  0  0  0  0  0  0  0  0  0  0  0
  1  3  1  0  0  0  0
  1  2  2  0  0  0  0
  1  4  1  0  0  0  0
  2  5  1  0  0  0  0
  2  6  1  0  0  0  0
  3  8  2  0  0  0  0
  3  7  1  0  0  0  0
  4 10  1  0  0  0  0
  4  9  2  0  0  0  0
  5 11  1  0  0  0  0
  6 12  2  0  0  0  0
  6 13  1  0  0  0  0
  7 14  1  0  0  0  0
  7 11  2  0  0  0  0
  9 12  1  0  0  0  0
  9 28  1  0  0  0  0
 10 29  1  0  0  0  0
 11 15  1  0  0  0  0
 12 16  1  0  0  0  0
 13 30  1  0  0  0  0
 14 17  1  0  0  0  0
 15 19  2  0  0  0  0
 15 18  1  0  0  0  0
 16 20  1  0  0  0  0
 17 31  1  0  0  0  0
 17 32  1  0  0  0  0
 17 33  1  0  0  0  0
 18 21  2  0  0  0  0
 18 34  1  0  0  0  0
 19 35  1  0  0  0  0
 19 22  1  0  0  0  0
 20 37  1  0  0  0  0
 20 38  1  0  0  0  0
 20 36  1  0  0  0  0
 21 23  1  0  0  0  0
 21 24  1  0  0  0  0
 22 39  1  0  0  0  0
 22 23  2  0  0  0  0
 23 25  1  0  0  0  0
 24 26  1  0  0  0  0
 25 27  1  0  0  0  0
 26 41  1  0  0  0  0
 26 40  1  0  0  0  0
 26 42  1  0  0  0  0
 27 45  1  0  0  0  0
 27 43  1  0  0  0  0
 27 44  1  0  0  0  0
M  END
