decoy-472
 OpenBabel06062114513D

 18 19  0  0  0  0  0  0  0  0999 V2000
   -0.0090    1.3790    0.0040 C   0  0  0  0  0  0  0  0  0  0  0  0
    0.0270   -0.0130   -0.0010 C   0  0  0  0  0  0  0  0  0  0  0  0
    1.2510    1.8370   -0.0040 N   0  0  0  0  0  0  0  0  0  0  0  0
   -1.1880    2.0490    0.0150 N   0  0  0  0  0  0  0  0  0  0  0  0
   -1.1850   -0.7220    0.0060 C   0  0  0  0  0  0  0  0  0  0  0  0
    1.3150   -0.3730   -0.0120 N   0  0  0  0  0  0  0  0  0  0  0  0
    2.0510    0.7520   -0.0140 C   0  0  0  0  0  0  0  0  0  0  0  0
   -2.3580    1.3530    0.0220 C   0  0  0  0  0  0  0  0  0  0  0  0
   -2.3460   -0.0100    0.0170 N   0  0  0  0  0  0  0  0  0  0  0  0
   -1.2150   -2.0640    0.0010 N   0  0  0  0  0  0  0  0  0  0  0  0
    3.4020    0.7820   -0.0250 O   0  0  0  0  0  0  0  0  0  0  0  0
   -3.5270    2.0110    0.0330 N   0  0  0  0  0  0  0  0  0  0  0  0
    1.6560   -1.2810   -0.0180 H   0  0  0  0  0  0  0  0  0  0  0  0
   -2.0660   -2.5310    0.0070 H   0  0  0  0  0  0  0  0  0  0  0  0
   -0.3870   -2.5700   -0.0070 H   0  0  0  0  0  0  0  0  0  0  0  0
    3.6350    1.7340   -0.0230 H   0  0  0  0  0  0  0  0  0  0  0  0
   -3.5390    2.9810    0.0370 H   0  0  0  0  0  0  0  0  0  0  0  0
   -4.3620    1.5170    0.0380 H   0  0  0  0  0  0  0  0  0  0  0  0
  1  4  1  0  0  0  0
  1  2  1  0  0  0  0
  1  3  2  0  0  0  0
  2  5  1  0  0  0  0
  2  6  1  0  0  0  0
  3  7  2  0  0  0  0
  4  8  1  0  0  0  0
  5  9  1  0  0  0  0
  5 10  1  0  0  0  0
  6  7  1  0  0  0  0
  6 13  1  0  0  0  0
  7 11  1  0  0  0  0
  8 12  1  0  0  0  0
  8  9  1  0  0  0  0
 10 14  1  0  0  0  0
 10 15  1  0  0  0  0
 11 16  1  0  0  0  0
 12 17  1  0  0  0  0
 12 18  1  0  0  0  0
M  END
