decoy-386
 OpenBabel06062114513D

 25 26  0  0  0  0  0  0  0  0999 V2000
   -0.2360    1.5450    0.0820 C   0  0  0  0  0  0  0  0  0  0  0  0
   -0.2830    0.2010    0.2790 N   0  0  0  0  0  0  0  0  0  0  0  0
    1.0130    2.1720    0.2940 C   0  0  0  0  0  0  0  0  0  0  0  0
   -1.3210    2.3430   -0.3590 C   0  0  0  0  0  0  0  0  0  0  0  0
   -1.3480   -0.6510    0.2470 C   0  0  0  0  0  0  0  0  0  0  0  0
    1.1700    3.5580    0.1060 C   0  0  0  0  0  0  0  0  0  0  0  0
   -1.1660    3.7290   -0.5490 C   0  0  0  0  0  0  0  0  0  0  0  0
   -1.1560   -1.9200   -0.3410 C   0  0  0  0  0  0  0  0  0  0  0  0
   -2.5880   -0.3680    0.8650 C   0  0  0  0  0  0  0  0  0  0  0  0
    0.0780    4.3420   -0.3130 C   0  0  0  0  0  0  0  0  0  0  0  0
   -2.1990   -2.8650   -0.3670 C   0  0  0  0  0  0  0  0  0  0  0  0
   -3.6320   -1.3120    0.8420 C   0  0  0  0  0  0  0  0  0  0  0  0
    0.2120    5.6780   -0.5030 O   0  0  0  0  0  0  0  0  0  0  0  0
   -3.4400   -2.5580    0.2200 C   0  0  0  0  0  0  0  0  0  0  0  0
    0.5780   -0.2260    0.4180 H   0  0  0  0  0  0  0  0  0  0  0  0
    1.8220    1.6220    0.5970 H   0  0  0  0  0  0  0  0  0  0  0  0
   -2.2250    1.9240   -0.5760 H   0  0  0  0  0  0  0  0  0  0  0  0
    2.0800    3.9920    0.2720 H   0  0  0  0  0  0  0  0  0  0  0  0
   -1.9590    4.2900   -0.8690 H   0  0  0  0  0  0  0  0  0  0  0  0
   -0.2570   -2.1610   -0.7670 H   0  0  0  0  0  0  0  0  0  0  0  0
   -2.7320    0.5150    1.3590 H   0  0  0  0  0  0  0  0  0  0  0  0
   -2.0540   -3.7760   -0.8080 H   0  0  0  0  0  0  0  0  0  0  0  0
   -4.5270   -1.0960    1.2880 H   0  0  0  0  0  0  0  0  0  0  0  0
    1.1440    5.8870   -0.2860 H   0  0  0  0  0  0  0  0  0  0  0  0
   -4.1970   -3.2450    0.2050 H   0  0  0  0  0  0  0  0  0  0  0  0
  1  2  1  0  0  0  0
  1  3  2  0  0  0  0
  1  4  1  0  0  0  0
  2 15  1  0  0  0  0
  2  5  1  0  0  0  0
  3 16  1  0  0  0  0
  3  6  1  0  0  0  0
  4  7  2  0  0  0  0
  4 17  1  0  0  0  0
  5  9  2  0  0  0  0
  5  8  1  0  0  0  0
  6 18  1  0  0  0  0
  6 10  2  0  0  0  0
  7 10  1  0  0  0  0
  7 19  1  0  0  0  0
  8 11  2  0  0  0  0
  8 20  1  0  0  0  0
  9 21  1  0  0  0  0
  9 12  1  0  0  0  0
 10 13  1  0  0  0  0
 11 14  1  0  0  0  0
 11 22  1  0  0  0  0
 12 23  1  0  0  0  0
 12 14  2  0  0  0  0
 13 24  1  0  0  0  0
 14 25  1  0  0  0  0
M  END
