decoy-588
 OpenBabel06062114513D

 38 40  0  0  0  0  0  0  0  0999 V2000
    0.2130    1.0280    0.0880 C   0  0  0  0  0  0  0  0  0  0  0  0
    0.2900   -0.2360    0.6780 C   0  0  0  0  0  0  0  0  0  0  0  0
    1.3830    1.7060    0.4450 C   0  0  0  0  0  0  0  0  0  0  0  0
   -0.7560    1.6550   -0.7290 C   0  0  0  0  0  0  0  0  0  0  0  0
   -0.6770   -1.2010    0.5420 O   0  0  0  0  0  0  0  0  0  0  0  0
    1.5000   -0.2610    1.3810 C   0  0  0  0  0  0  0  0  0  0  0  0
    2.1330    0.9110    1.2200 N   0  0  0  0  0  0  0  0  0  0  0  0
    1.6360    3.0150    0.0080 C   0  0  0  0  0  0  0  0  0  0  0  0
   -0.5090    2.9780   -1.1780 C   0  0  0  0  0  0  0  0  0  0  0  0
   -2.1860    0.8480   -1.1530 Cl  0  0  0  0  0  0  0  0  0  0  0  0
   -0.3450   -2.5690    0.8530 C   0  0  0  0  0  0  0  0  0  0  0  0
    0.6800    3.6460   -0.8090 C   0  0  0  0  0  0  0  0  0  0  0  0
   -1.7170    3.8980   -2.2600 Br  0  0  0  0  0  0  0  0  0  0  0  0
    0.7580   -3.0900    0.0720 O   0  0  0  0  0  0  0  0  0  0  0  0
   -1.6070   -3.4620    0.7070 C   0  0  0  0  0  0  0  0  0  0  0  0
    0.5510   -3.3590   -1.3360 C   0  0  0  0  0  0  0  0  0  0  0  0
   -1.9540   -3.7250   -0.7830 C   0  0  0  0  0  0  0  0  0  0  0  0
   -1.3910   -4.7110    1.3660 O   0  0  0  0  0  0  0  0  0  0  0  0
   -0.7140   -4.2450   -1.5600 C   0  0  0  0  0  0  0  0  0  0  0  0
    0.6270   -2.0780   -2.2110 C   0  0  0  0  0  0  0  0  0  0  0  0
   -2.4810   -2.5460   -1.3910 O   0  0  0  0  0  0  0  0  0  0  0  0
   -1.0270   -4.3950   -2.9440 O   0  0  0  0  0  0  0  0  0  0  0  0
    1.8190   -1.3520   -1.9290 O   0  0  0  0  0  0  0  0  0  0  0  0
    1.8640   -1.0420    1.9290 H   0  0  0  0  0  0  0  0  0  0  0  0
    2.9930    1.1440    1.6030 H   0  0  0  0  0  0  0  0  0  0  0  0
    2.4960    3.4970    0.2770 H   0  0  0  0  0  0  0  0  0  0  0  0
   -0.0460   -2.6080    1.9050 H   0  0  0  0  0  0  0  0  0  0  0  0
    0.8520    4.6000   -1.1350 H   0  0  0  0  0  0  0  0  0  0  0  0
   -2.4560   -2.9800    1.1990 H   0  0  0  0  0  0  0  0  0  0  0  0
    1.4110   -3.9660   -1.6360 H   0  0  0  0  0  0  0  0  0  0  0  0
   -2.7420   -4.4810   -0.8340 H   0  0  0  0  0  0  0  0  0  0  0  0
   -1.2340   -4.4810    2.3060 H   0  0  0  0  0  0  0  0  0  0  0  0
   -0.4880   -5.2480   -1.1840 H   0  0  0  0  0  0  0  0  0  0  0  0
    0.6390   -2.3480   -3.2690 H   0  0  0  0  0  0  0  0  0  0  0  0
   -0.2270   -1.4280   -2.0360 H   0  0  0  0  0  0  0  0  0  0  0  0
   -3.2820   -2.3260   -0.8700 H   0  0  0  0  0  0  0  0  0  0  0  0
   -0.2240   -4.7910   -3.3450 H   0  0  0  0  0  0  0  0  0  0  0  0
    1.7870   -0.5750   -2.5260 H   0  0  0  0  0  0  0  0  0  0  0  0
  1  3  2  0  0  0  0
  1  2  1  0  0  0  0
  1  4  1  0  0  0  0
  2  6  2  0  0  0  0
  2  5  1  0  0  0  0
  3  7  1  0  0  0  0
  3  8  1  0  0  0  0
  4  9  2  0  0  0  0
  4 10  1  0  0  0  0
  5 11  1  0  0  0  0
  6 24  1  0  0  0  0
  6  7  1  0  0  0  0
  7 25  1  0  0  0  0
  8 26  1  0  0  0  0
  8 12  2  0  0  0  0
  9 12  1  0  0  0  0
  9 13  1  0  0  0  0
 11 15  1  0  0  0  0
 11 27  1  0  0  0  0
 11 14  1  0  0  0  0
 12 28  1  0  0  0  0
 14 16  1  0  0  0  0
 15 17  1  0  0  0  0
 15 29  1  0  0  0  0
 15 18  1  0  0  0  0
 16 19  1  0  0  0  0
 16 20  1  0  0  0  0
 16 30  1  0  0  0  0
 17 19  1  0  0  0  0
 17 21  1  0  0  0  0
 17 31  1  0  0  0  0
 18 32  1  0  0  0  0
 19 33  1  0  0  0  0
 19 22  1  0  0  0  0
 20 35  1  0  0  0  0
 20 23  1  0  0  0  0
 20 34  1  0  0  0  0
 21 36  1  0  0  0  0
 22 37  1  0  0  0  0
 23 38  1  0  0  0  0
M  END
