decoy-1062
 OpenBabel06062114513D

 37 39  0  0  0  0  0  0  0  0999 V2000
   -0.4590    1.5430    0.0080 C   0  0  0  0  0  0  0  0  0  0  0  0
   -0.9060    1.9920   -1.3530 C   0  0  0  0  0  0  0  0  0  0  0  0
   -0.2790    0.0510    0.0920 C   0  0  0  0  0  0  0  0  0  0  0  0
    0.8140    2.1620    0.4680 C   0  0  0  0  0  0  0  0  0  0  0  0
   -0.2240    3.0350   -2.0400 C   0  0  0  0  0  0  0  0  0  0  0  0
   -2.0460    1.4050   -1.9550 C   0  0  0  0  0  0  0  0  0  0  0  0
   -1.0170   -0.7950    0.9770 C   0  0  0  0  0  0  0  0  0  0  0  0
    0.6800   -0.5390   -0.7740 C   0  0  0  0  0  0  0  0  0  0  0  0
    0.9730    3.5850    0.1180 C   0  0  0  0  0  0  0  0  0  0  0  0
    0.9220    3.7520   -1.4190 C   0  0  0  0  0  0  0  0  0  0  0  0
   -0.6410    3.4010   -3.3410 C   0  0  0  0  0  0  0  0  0  0  0  0
   -2.4620    1.7930   -3.2400 C   0  0  0  0  0  0  0  0  0  0  0  0
   -0.7640   -2.1920    0.9550 C   0  0  0  0  0  0  0  0  0  0  0  0
   -1.9460   -0.2670    1.8230 N   0  0  0  0  0  0  0  0  0  0  0  0
    0.9150   -1.9240   -0.7800 C   0  0  0  0  0  0  0  0  0  0  0  0
   -1.7520    2.7830   -3.9380 C   0  0  0  0  0  0  0  0  0  0  0  0
    0.1890   -2.7500    0.0890 C   0  0  0  0  0  0  0  0  0  0  0  0
   -2.7690   -0.9570    2.7610 C   0  0  0  0  0  0  0  0  0  0  0  0
    2.0630   -2.5920   -1.8290 Cl  0  0  0  0  0  0  0  0  0  0  0  0
   -1.2260    1.8990    0.6940 H   0  0  0  0  0  0  0  0  0  0  0  0
    0.8760    2.0640    1.4840 H   0  0  0  0  0  0  0  0  0  0  0  0
   -2.5750    0.6790   -1.4650 H   0  0  0  0  0  0  0  0  0  0  0  0
    1.2160    0.0490   -1.4180 H   0  0  0  0  0  0  0  0  0  0  0  0
    0.1810    4.1730    0.5910 H   0  0  0  0  0  0  0  0  0  0  0  0
    1.9340    3.9390    0.4970 H   0  0  0  0  0  0  0  0  0  0  0  0
    1.8470    3.3700   -1.8580 H   0  0  0  0  0  0  0  0  0  0  0  0
    0.8590    4.8220   -1.6370 H   0  0  0  0  0  0  0  0  0  0  0  0
   -0.1460    4.1340   -3.8560 H   0  0  0  0  0  0  0  0  0  0  0  0
   -3.2790    1.3510   -3.6690 H   0  0  0  0  0  0  0  0  0  0  0  0
   -1.2720   -2.8270    1.5720 H   0  0  0  0  0  0  0  0  0  0  0  0
   -2.0760    0.6890    1.7980 H   0  0  0  0  0  0  0  0  0  0  0  0
   -2.0510    3.0620   -4.8750 H   0  0  0  0  0  0  0  0  0  0  0  0
    0.3490   -3.7610    0.0960 H   0  0  0  0  0  0  0  0  0  0  0  0
   -3.4010   -0.2320    3.2750 H   0  0  0  0  0  0  0  0  0  0  0  0
   -3.4110   -1.6760    2.2490 H   0  0  0  0  0  0  0  0  0  0  0  0
   -2.1550   -1.4710    3.5020 H   0  0  0  0  0  0  0  0  0  0  0  0
    1.5960    1.6540    0.0500 H   0  0  0  0  0  0  0  0  0  0  0  0
  1  3  1  0  0  0  0
  1  4  1  0  0  0  0
  1 20  1  0  0  0  0
  1  2  1  0  0  0  0
  2  5  2  0  0  0  0
  2  6  1  0  0  0  0
  3  7  2  0  0  0  0
  3  8  1  0  0  0  0
  4 21  1  0  0  0  0
  4  9  1  0  0  0  0
  4 37  1  0  0  0  0
  5 10  1  0  0  0  0
  5 11  1  0  0  0  0
  6 22  1  0  0  0  0
  6 12  2  0  0  0  0
  7 14  1  0  0  0  0
  7 13  1  0  0  0  0
  8 15  2  0  0  0  0
  8 23  1  0  0  0  0
  9 25  1  0  0  0  0
  9 24  1  0  0  0  0
  9 10  1  0  0  0  0
 10 26  1  0  0  0  0
 10 27  1  0  0  0  0
 11 16  2  0  0  0  0
 11 28  1  0  0  0  0
 12 16  1  0  0  0  0
 12 29  1  0  0  0  0
 13 30  1  0  0  0  0
 13 17  2  0  0  0  0
 14 18  1  0  0  0  0
 14 31  1  0  0  0  0
 15 17  1  0  0  0  0
 15 19  1  0  0  0  0
 16 32  1  0  0  0  0
 17 33  1  0  0  0  0
 18 34  1  0  0  0  0
 18 36  1  0  0  0  0
 18 35  1  0  0  0  0
M  END
