decoy-455
 OpenBabel06062114513D

 49 51  0  0  0  0  0  0  0  0999 V2000
    2.4290    0.3470    0.6280 C   0  0  0  0  0  0  0  0  0  0  0  0
    1.0990    0.8640    1.1720 C   0  0  0  0  0  0  0  0  0  0  0  0
    2.4840   -0.3850   -0.6010 C   0  0  0  0  0  0  0  0  0  0  0  0
    3.6390    0.4680    1.3660 C   0  0  0  0  0  0  0  0  0  0  0  0
    0.0720    1.0470   -0.0180 C   0  0  0  0  0  0  0  0  0  0  0  0
    0.5340   -0.2050    2.1690 C   0  0  0  0  0  0  0  0  0  0  0  0
    1.2650    2.2380    1.9160 C   0  0  0  0  0  0  0  0  0  0  0  0
    1.2640   -0.6990   -1.3990 C   0  0  0  0  0  0  0  0  0  0  0  0
    3.7240   -0.8500   -1.0990 C   0  0  0  0  0  0  0  0  0  0  0  0
    4.8650   -0.0130    0.8720 C   0  0  0  0  0  0  0  0  0  0  0  0
   -0.0910   -0.3490   -0.7090 C   0  0  0  0  0  0  0  0  0  0  0  0
   -1.2920    1.7450    0.2780 C   0  0  0  0  0  0  0  0  0  0  0  0
    0.2430   -1.5700    1.4850 C   0  0  0  0  0  0  0  0  0  0  0  0
    4.9070   -0.6590   -0.3720 C   0  0  0  0  0  0  0  0  0  0  0  0
    6.0120    0.1300    1.5830 O   0  0  0  0  0  0  0  0  0  0  0  0
   -0.5340   -1.4800    0.2010 *   0  0  0  0  0  0  0  0  0  0  0  0
   -2.0150   -1.6550    0.3980 C   0  0  0  0  0  0  0  0  0  0  0  0
   -2.7380   -1.9100   -0.8430 C   0  0  0  0  0  0  0  0  0  0  0  0
   -3.9270   -1.3940   -1.2310 C   0  0  0  0  0  0  0  0  0  0  0  0
   -4.4530   -1.7850   -2.5390 C   0  0  0  0  0  0  0  0  0  0  0  0
   -4.7030   -0.4950   -0.3770 C   0  0  0  0  0  0  0  0  0  0  0  0
   -0.8090   -0.2460   -1.5270 H   0  0  0  0  0  0  0  0  0  0  0  0
    3.6470    0.9040    2.2860 H   0  0  0  0  0  0  0  0  0  0  0  0
    0.5430    1.7160   -0.7500 H   0  0  0  0  0  0  0  0  0  0  0  0
    1.2450   -0.3700    2.9840 H   0  0  0  0  0  0  0  0  0  0  0  0
   -0.3910    0.1530    2.6270 H   0  0  0  0  0  0  0  0  0  0  0  0
    1.8860    2.1500    2.8060 H   0  0  0  0  0  0  0  0  0  0  0  0
    0.3070    2.6250    2.2640 H   0  0  0  0  0  0  0  0  0  0  0  0
    1.7150    2.9790    1.2520 H   0  0  0  0  0  0  0  0  0  0  0  0
    1.3380   -0.1430   -2.3380 H   0  0  0  0  0  0  0  0  0  0  0  0
    1.2590   -1.7630   -1.6540 H   0  0  0  0  0  0  0  0  0  0  0  0
    3.7700   -1.3520   -1.9900 H   0  0  0  0  0  0  0  0  0  0  0  0
   -1.1460    2.8180    0.4140 H   0  0  0  0  0  0  0  0  0  0  0  0
   -1.7670    1.3570    1.1750 H   0  0  0  0  0  0  0  0  0  0  0  0
   -1.9750    1.6220   -0.5640 H   0  0  0  0  0  0  0  0  0  0  0  0
    1.1950   -2.0560    1.2600 H   0  0  0  0  0  0  0  0  0  0  0  0
   -0.2470   -2.2220    2.2120 H   0  0  0  0  0  0  0  0  0  0  0  0
    5.7940   -1.0120   -0.7390 H   0  0  0  0  0  0  0  0  0  0  0  0
    5.7610    0.6020    2.4050 H   0  0  0  0  0  0  0  0  0  0  0  0
   -0.2720   -2.3290   -0.3060 H   0  0  0  0  0  0  0  0  0  0  0  0
   -2.1850   -2.5470    1.0060 H   0  0  0  0  0  0  0  0  0  0  0  0
   -2.4200   -0.8170    0.9580 H   0  0  0  0  0  0  0  0  0  0  0  0
   -2.3040   -2.5720   -1.4490 H   0  0  0  0  0  0  0  0  0  0  0  0
   -3.7480   -1.4970   -3.3230 H   0  0  0  0  0  0  0  0  0  0  0  0
   -5.4110   -1.3190   -2.7740 H   0  0  0  0  0  0  0  0  0  0  0  0
   -4.5950   -2.8670   -2.5750 H   0  0  0  0  0  0  0  0  0  0  0  0
   -4.9090   -0.9780    0.5800 H   0  0  0  0  0  0  0  0  0  0  0  0
   -5.6630   -0.2160   -0.8140 H   0  0  0  0  0  0  0  0  0  0  0  0
   -4.1480    0.4260   -0.2000 H   0  0  0  0  0  0  0  0  0  0  0  0
  1  2  1  0  0  0  0
  1  4  2  0  0  0  0
  1  3  1  0  0  0  0
  2  5  1  0  0  0  0
  2  7  1  0  0  0  0
  2  6  1  0  0  0  0
  3  8  1  0  0  0  0
  3  9  2  0  0  0  0
  4 23  1  0  0  0  0
  4 10  1  0  0  0  0
  5 11  1  0  0  0  0
  5 12  1  0  0  0  0
  5 24  1  0  0  0  0
  6 26  1  0  0  0  0
  6 25  1  0  0  0  0
  6 13  1  0  0  0  0
  7 28  1  0  0  0  0
  7 27  1  0  0  0  0
  7 29  1  0  0  0  0
  8 11  1  0  0  0  0
  8 30  1  0  0  0  0
  8 31  1  0  0  0  0
  9 14  1  0  0  0  0
  9 32  1  0  0  0  0
 10 15  1  0  0  0  0
 10 14  2  0  0  0  0
 11 22  1  0  0  0  0
 11 16  1  0  0  0  0
 12 33  1  0  0  0  0
 12 34  1  0  0  0  0
 12 35  1  0  0  0  0
 13 37  1  0  0  0  0
 13 16  1  0  0  0  0
 13 36  1  0  0  0  0
 14 38  1  0  0  0  0
 15 39  1  0  0  0  0
 16 17  1  0  0  0  0
 16 40  1  0  0  0  0
 17 42  1  0  0  0  0
 17 41  1  0  0  0  0
 17 18  1  0  0  0  0
 18 19  2  0  0  0  0
 18 43  1  0  0  0  0
 19 21  1  0  0  0  0
 19 20  1  0  0  0  0
 20 44  1  0  0  0  0
 20 45  1  0  0  0  0
 20 46  1  0  0  0  0
 21 49  1  0  0  0  0
 21 47  1  0  0  0  0
 21 48  1  0  0  0  0
M  END
