decoy-654
 OpenBabel06062114513D

  5  4  0  0  0  0  0  0  0  0999 V2000
   -0.1070    1.4600    0.0100 S   0  0  0  0  0  0  0  0  0  0  0  0
    0.1530   -0.2100   -0.0010 O   0  0  0  0  0  0  0  0  0  0  0  0
    1.3800    2.2620    0.0000 O   0  0  0  0  0  0  0  0  0  0  0  0
   -0.9940    1.9010   -1.3600 O   0  0  0  0  0  0  0  0  0  0  0  0
   -0.9690    1.8870    1.4000 O   0  0  0  0  0  0  0  0  0  0  0  0
  1  5  1  0  0  0  0
  1  2  2  0  0  0  0
  1  3  1  0  0  0  0
  1  4  2  0  0  0  0
M  END
