
  ACD/Labs06062116183D

 65 71  0  0  0  0  0  0  0  0  1 V2000
   24.8891   -6.3504    0.3700 C   0  0  0  0  0  0  0  0  0  0  0  0
   24.7544   -5.1421   -0.2098 C   0  0  0  0  0  0  0  0  0  0  0  0
   26.1013   -6.9846    0.5816 C   0  0  0  0  0  0  0  0  0  0  0  0
   23.8193   -6.9585    0.7562 N   0  0  0  0  0  0  0  0  0  0  0  0
   25.7978   -4.3631   -0.6795 C   0  0  0  0  0  0  0  0  0  0  0  0
   23.5514   -4.6929   -0.3284 N   0  0  0  0  0  0  0  0  0  0  0  0
   26.8987   -6.6488    1.7001 C   0  0  0  0  0  0  0  0  0  0  0  0
   26.5627   -7.9653   -0.3259 C   0  0  0  0  0  0  0  0  0  0  0  0
   22.6378   -6.4644    0.6138 C   0  0  0  0  0  0  0  0  0  0  0  0
   26.3691   -4.6206   -1.9465 C   0  0  0  0  0  0  0  0  0  0  0  0
   26.3168   -3.3129    0.1130 C   0  0  0  0  0  0  0  0  0  0  0  0
   22.5509   -5.3063    0.0550 N   0  0  0  0  0  0  0  0  0  0  0  0
   28.1387   -7.2819    1.9034 C   0  0  0  0  0  0  0  0  0  0  0  0
   27.8028   -8.5963   -0.1201 C   0  0  0  0  0  0  0  0  0  0  0  0
   21.5116   -7.1482    1.0413 C   0  0  0  0  0  0  0  0  0  0  0  0
   27.4439   -3.8403   -2.4128 C   0  0  0  0  0  0  0  0  0  0  0  0
   27.3915   -2.5343   -0.3566 C   0  0  0  0  0  0  0  0  0  0  0  0
   28.5910   -8.2547    0.9938 C   0  0  0  0  0  0  0  0  0  0  0  0
   20.3872   -7.2967    0.1944 C   0  0  0  0  0  0  0  0  0  0  0  0
   21.4640   -7.7139    2.3361 C   0  0  0  0  0  0  0  0  0  0  0  0
   27.9544   -2.7976   -1.6187 C   0  0  0  0  0  0  0  0  0  0  0  0
   19.2409   -7.9975    0.6427 C   0  0  0  0  0  0  0  0  0  0  0  0
   20.3112   -8.4008    2.7498 C   0  0  0  0  0  0  0  0  0  0  0  0
   18.1109   -8.1748   -0.1420 C   0  0  0  0  0  0  0  0  0  0  0  0
   19.2594   -8.5158    1.9022 N   0  0  0  0  0  0  0  0  0  0  0  0
   16.9588   -8.4051    0.3886 N   0  0  0  0  0  0  0  0  0  0  0  0
   18.1504   -8.1262   -1.4302 N   0  0  0  0  0  0  0  0  0  0  0  0
   15.8808   -8.5796   -0.2956 C   0  0  0  0  0  0  0  0  0  0  0  0
   17.1432   -8.2875   -2.1248 N   0  0  0  0  0  0  0  0  0  0  0  0
   15.9718   -8.5178   -1.6390 C   0  0  0  0  0  0  0  0  0  0  0  0
   14.7076   -8.8211    0.3980 C   0  0  0  0  0  0  0  0  0  0  0  0
   14.9142   -8.6797   -2.5168 C   0  0  0  0  0  0  0  0  0  0  0  0
   14.2224  -10.1408    0.5484 C   0  0  0  0  0  0  0  0  0  0  0  0
   13.9726   -7.7475    0.9526 C   0  0  0  0  0  0  0  0  0  0  0  0
   14.0246   -7.6111   -2.7711 C   0  0  0  0  0  0  0  0  0  0  0  0
   14.7016   -9.9231   -3.1560 C   0  0  0  0  0  0  0  0  0  0  0  0
   13.0204  -10.3815    1.2386 C   0  0  0  0  0  0  0  0  0  0  0  0
   12.7704   -7.9919    1.6429 C   0  0  0  0  0  0  0  0  0  0  0  0
   12.9389   -7.7848   -3.6493 C   0  0  0  0  0  0  0  0  0  0  0  0
   13.6148  -10.0930   -4.0331 C   0  0  0  0  0  0  0  0  0  0  0  0
   12.2948   -9.3085    1.7855 C   0  0  0  0  0  0  0  0  0  0  0  0
   12.7327   -9.0251   -4.2799 C   0  0  0  0  0  0  0  0  0  0  0  0
   26.5843   -5.9403    2.3696 H   0  0  0  0  0  0  0  0  0  0  0  0
   26.0031   -8.2217   -1.1446 H   0  0  0  0  0  0  0  0  0  0  0  0
   26.0101   -5.3776   -2.5353 H   0  0  0  0  0  0  0  0  0  0  0  0
   25.9209   -3.1122    1.0357 H   0  0  0  0  0  0  0  0  0  0  0  0
   28.7129   -7.0331    2.7125 H   0  0  0  0  0  0  0  0  0  0  0  0
   28.1335   -9.3033   -0.7810 H   0  0  0  0  0  0  0  0  0  0  0  0
   27.8546   -4.0323   -3.3295 H   0  0  0  0  0  0  0  0  0  0  0  0
   27.7636   -1.7776    0.2200 H   0  0  0  0  0  0  0  0  0  0  0  0
   29.4927   -8.7134    1.1431 H   0  0  0  0  0  0  0  0  0  0  0  0
   20.4046   -6.8925   -0.7474 H   0  0  0  0  0  0  0  0  0  0  0  0
   22.2529   -7.6261    2.9823 H   0  0  0  0  0  0  0  0  0  0  0  0
   28.7358   -2.2323   -1.9584 H   0  0  0  0  0  0  0  0  0  0  0  0
   20.2575   -8.8132    3.6830 H   0  0  0  0  0  0  0  0  0  0  0  0
   14.7379  -10.9325    0.1534 H   0  0  0  0  0  0  0  0  0  0  0  0
   14.3033   -6.7838    0.8534 H   0  0  0  0  0  0  0  0  0  0  0  0
   14.1585   -6.7029   -2.3175 H   0  0  0  0  0  0  0  0  0  0  0  0
   15.3312  -10.7125   -2.9826 H   0  0  0  0  0  0  0  0  0  0  0  0
   12.6735  -11.3372    1.3419 H   0  0  0  0  0  0  0  0  0  0  0  0
   12.2422   -7.2121    2.0404 H   0  0  0  0  0  0  0  0  0  0  0  0
   12.2967   -7.0086   -3.8279 H   0  0  0  0  0  0  0  0  0  0  0  0
   13.4644  -10.9957   -4.4911 H   0  0  0  0  0  0  0  0  0  0  0  0
   11.4207   -9.4842    2.2864 H   0  0  0  0  0  0  0  0  0  0  0  0
   11.9430   -9.1509   -4.9162 H   0  0  0  0  0  0  0  0  0  0  0  0
  1  4  2  0  0  0  0
  1  3  1  0  0  0  0
  1  2  1  0  0  0  0
  2  5  1  0  0  0  0
  2  6  2  0  0  0  0
  3  8  2  0  0  0  0
  3  7  1  0  0  0  0
  4  9  1  0  0  0  0
  5 10  2  0  0  0  0
  5 11  1  0  0  0  0
  6 12  1  0  0  0  0
  7 13  2  0  0  0  0
  7 43  1  0  0  0  0
  8 44  1  0  0  0  0
  8 14  1  0  0  0  0
  9 15  1  0  0  0  0
  9 12  2  0  0  0  0
 10 45  1  0  0  0  0
 10 16  1  0  0  0  0
 11 17  2  0  0  0  0
 11 46  1  0  0  0  0
 13 18  1  0  0  0  0
 13 47  1  0  0  0  0
 14 48  1  0  0  0  0
 14 18  2  0  0  0  0
 15 19  2  0  0  0  0
 15 20  1  0  0  0  0
 16 49  1  0  0  0  0
 16 21  2  0  0  0  0
 17 21  1  0  0  0  0
 17 50  1  0  0  0  0
 18 51  1  0  0  0  0
 19 22  1  0  0  0  0
 19 52  1  0  0  0  0
 20 23  2  0  0  0  0
 20 53  1  0  0  0  0
 21 54  1  0  0  0  0
 22 24  1  0  0  0  0
 22 25  2  0  0  0  0
 23 25  1  0  0  0  0
 23 55  1  0  0  0  0
 24 27  2  0  0  0  0
 24 26  1  0  0  0  0
 26 28  2  0  0  0  0
 27 29  1  0  0  0  0
 28 30  1  0  0  0  0
 28 31  1  0  0  0  0
 29 30  2  0  0  0  0
 30 32  1  0  0  0  0
 31 33  2  0  0  0  0
 31 34  1  0  0  0  0
 32 36  2  0  0  0  0
 32 35  1  0  0  0  0
 33 56  1  0  0  0  0
 33 37  1  0  0  0  0
 34 38  2  0  0  0  0
 34 57  1  0  0  0  0
 35 39  2  0  0  0  0
 35 58  1  0  0  0  0
 36 40  1  0  0  0  0
 36 59  1  0  0  0  0
 37 60  1  0  0  0  0
 37 41  2  0  0  0  0
 38 41  1  0  0  0  0
 38 61  1  0  0  0  0
 39 42  1  0  0  0  0
 39 62  1  0  0  0  0
 40 63  1  0  0  0  0
 40 42  2  0  0  0  0
 41 64  1  0  0  0  0
 42 65  1  0  0  0  0
M  END
