decoy-870
 OpenBabel06062114513D

 32 34  0  0  0  0  0  0  0  0999 V2000
   -0.0460    1.3940    0.0480 N   0  0  0  0  0  0  0  0  0  0  0  0
   -0.0930    0.0500   -0.0100 C   0  0  0  0  0  0  0  0  0  0  0  0
    1.1450    2.2010    0.0370 C   0  0  0  0  0  0  0  0  0  0  0  0
   -1.3310    1.8180    0.1240 C   0  0  0  0  0  0  0  0  0  0  0  0
   -1.4320   -0.3280    0.0290 C   0  0  0  0  0  0  0  0  0  0  0  0
    0.8890   -0.8840   -0.0980 N   0  0  0  0  0  0  0  0  0  0  0  0
    1.1450    3.1050    1.1520 O   0  0  0  0  0  0  0  0  0  0  0  0
    1.3090    3.0610   -1.2430 C   0  0  0  0  0  0  0  0  0  0  0  0
   -2.1840    0.7760    0.1130 N   0  0  0  0  0  0  0  0  0  0  0  0
   -1.9290    3.5750    0.2490 Br  0  0  0  0  0  0  0  0  0  0  0  0
   -1.7550   -1.6940   -0.0220 C   0  0  0  0  0  0  0  0  0  0  0  0
    0.5680   -2.2060   -0.1460 C   0  0  0  0  0  0  0  0  0  0  0  0
    1.9740    4.2120    0.7770 C   0  0  0  0  0  0  0  0  0  0  0  0
    1.6280    4.4690   -0.7030 C   0  0  0  0  0  0  0  0  0  0  0  0
    2.3480    2.5460   -2.0770 O   0  0  0  0  0  0  0  0  0  0  0  0
   -0.7380   -2.5940   -0.1080 N   0  0  0  0  0  0  0  0  0  0  0  0
   -3.0280   -2.1180    0.0130 N   0  0  0  0  0  0  0  0  0  0  0  0
    1.7140    5.4220    1.7030 C   0  0  0  0  0  0  0  0  0  0  0  0
    2.6910    5.1280   -1.3890 O   0  0  0  0  0  0  0  0  0  0  0  0
    2.0630    5.0990    3.0450 O   0  0  0  0  0  0  0  0  0  0  0  0
    2.0270    1.5600    0.1530 H   0  0  0  0  0  0  0  0  0  0  0  0
    0.3900    3.0890   -1.8350 H   0  0  0  0  0  0  0  0  0  0  0  0
    1.3060   -2.9070   -0.2120 H   0  0  0  0  0  0  0  0  0  0  0  0
    3.0270    3.9200    0.8690 H   0  0  0  0  0  0  0  0  0  0  0  0
    0.7330    5.0940   -0.7770 H   0  0  0  0  0  0  0  0  0  0  0  0
    2.0410    1.6540   -2.3420 H   0  0  0  0  0  0  0  0  0  0  0  0
   -3.2250   -3.0680   -0.0230 H   0  0  0  0  0  0  0  0  0  0  0  0
   -3.7540   -1.4770    0.0750 H   0  0  0  0  0  0  0  0  0  0  0  0
    2.3170    6.2730    1.3810 H   0  0  0  0  0  0  0  0  0  0  0  0
    0.6600    5.7030    1.6750 H   0  0  0  0  0  0  0  0  0  0  0  0
    2.3730    5.2270   -2.3110 H   0  0  0  0  0  0  0  0  0  0  0  0
    1.8720    5.9130    3.5570 H   0  0  0  0  0  0  0  0  0  0  0  0
  1  4  1  0  0  0  0
  1  2  1  0  0  0  0
  1  3  1  0  0  0  0
  2  5  2  0  0  0  0
  2  6  1  0  0  0  0
  3  8  1  0  0  0  0
  3 21  1  0  0  0  0
  3  7  1  0  0  0  0
  4 10  1  0  0  0  0
  4  9  2  0  0  0  0
  5  9  1  0  0  0  0
  5 11  1  0  0  0  0
  6 12  2  0  0  0  0
  7 13  1  0  0  0  0
  8 14  1  0  0  0  0
  8 15  1  0  0  0  0
  8 22  1  0  0  0  0
 11 17  1  0  0  0  0
 11 16  2  0  0  0  0
 12 16  1  0  0  0  0
 12 23  1  0  0  0  0
 13 14  1  0  0  0  0
 13 24  1  0  0  0  0
 13 18  1  0  0  0  0
 14 25  1  0  0  0  0
 14 19  1  0  0  0  0
 15 26  1  0  0  0  0
 17 28  1  0  0  0  0
 17 27  1  0  0  0  0
 18 20  1  0  0  0  0
 18 29  1  0  0  0  0
 18 30  1  0  0  0  0
 19 31  1  0  0  0  0
 20 32  1  0  0  0  0
M  END
