decoy-704
 OpenBabel06062114513D

 18 18  0  0  0  0  0  0  0  0999 V2000
   -0.0940    1.5440   -0.1070 C   0  0  0  0  0  0  0  0  0  0  0  0
   -0.1330   -0.0140    0.0710 C   0  0  0  0  0  0  0  0  0  0  0  0
    1.4160    1.5400    0.2810 C   0  0  0  0  0  0  0  0  0  0  0  0
   -0.4490    2.1110   -1.5210 C   0  0  0  0  0  0  0  0  0  0  0  0
   -0.8570    2.2250    0.8260 F   0  0  0  0  0  0  0  0  0  0  0  0
    1.4020   -0.0090    0.3480 C   0  0  0  0  0  0  0  0  0  0  0  0
   -1.0440   -0.5810    1.2090 C   0  0  0  0  0  0  0  0  0  0  0  0
   -0.4380   -0.6950   -1.0940 F   0  0  0  0  0  0  0  0  0  0  0  0
    2.2880    2.0570   -0.6530 F   0  0  0  0  0  0  0  0  0  0  0  0
    1.6830    2.1330    1.4980 F   0  0  0  0  0  0  0  0  0  0  0  0
   -0.2260    3.4670   -1.5640 F   0  0  0  0  0  0  0  0  0  0  0  0
    0.2820    1.5460   -2.5400 F   0  0  0  0  0  0  0  0  0  0  0  0
   -1.7780    1.8990   -1.7970 F   0  0  0  0  0  0  0  0  0  0  0  0
    1.8060   -0.5260    1.5600 F   0  0  0  0  0  0  0  0  0  0  0  0
    2.1510   -0.6020   -0.6480 F   0  0  0  0  0  0  0  0  0  0  0  0
   -0.8590   -1.9370    1.3410 F   0  0  0  0  0  0  0  0  0  0  0  0
   -0.8040   -0.0150    2.4400 F   0  0  0  0  0  0  0  0  0  0  0  0
   -2.3670   -0.3700    0.9060 F   0  0  0  0  0  0  0  0  0  0  0  0
  1  2  1  0  0  0  0
  1  3  1  0  0  0  0
  1  5  1  0  0  0  0
  1  4  1  0  0  0  0
  2  8  1  0  0  0  0
  2  6  1  0  0  0  0
  2  7  1  0  0  0  0
  3  6  1  0  0  0  0
  3 10  1  0  0  0  0
  3  9  1  0  0  0  0
  4 11  1  0  0  0  0
  4 12  1  0  0  0  0
  4 13  1  0  0  0  0
  6 14  1  0  0  0  0
  6 15  1  0  0  0  0
  7 16  1  0  0  0  0
  7 17  1  0  0  0  0
  7 18  1  0  0  0  0
M  END
