decoy-610
 OpenBabel06062114513D

 33 34  0  0  0  0  0  0  0  0999 V2000
    0.3050    1.2340   -0.0260 N   0  0  0  0  0  0  0  0  0  0  0  0
    0.2920   -0.1750    0.1620 C   0  0  0  0  0  0  0  0  0  0  0  0
    1.5140    1.9600   -0.2070 C   0  0  0  0  0  0  0  0  0  0  0  0
   -0.8300    1.8920   -0.0330 C   0  0  0  0  0  0  0  0  0  0  0  0
   -0.1260   -0.5720    1.5350 C   0  0  0  0  0  0  0  0  0  0  0  0
    1.6510    2.5190   -1.5810 C   0  0  0  0  0  0  0  0  0  0  0  0
   -1.3750    2.6730    1.3890 S   0  0  0  0  0  0  0  0  0  0  0  0
   -1.8250    1.8690   -1.4170 S   0  0  0  0  0  0  0  0  0  0  0  0
   -1.3330   -1.2770    1.7610 C   0  0  0  0  0  0  0  0  0  0  0  0
    0.6810   -0.2340    2.6470 C   0  0  0  0  0  0  0  0  0  0  0  0
    1.6480    3.9160   -1.8090 C   0  0  0  0  0  0  0  0  0  0  0  0
    1.7710    1.6500   -2.6910 C   0  0  0  0  0  0  0  0  0  0  0  0
   -1.7230   -1.6300    3.0660 C   0  0  0  0  0  0  0  0  0  0  0  0
    0.2910   -0.5880    3.9520 C   0  0  0  0  0  0  0  0  0  0  0  0
    1.7610    4.4290   -3.1150 C   0  0  0  0  0  0  0  0  0  0  0  0
    1.8840    2.1640   -3.9960 C   0  0  0  0  0  0  0  0  0  0  0  0
   -0.9110   -1.2860    4.1610 C   0  0  0  0  0  0  0  0  0  0  0  0
    1.8790    3.5540   -4.2080 C   0  0  0  0  0  0  0  0  0  0  0  0
   -0.3640   -0.6270   -0.5900 H   0  0  0  0  0  0  0  0  0  0  0  0
    1.2740   -0.6210   -0.0150 H   0  0  0  0  0  0  0  0  0  0  0  0
    1.5660    2.7550    0.5430 H   0  0  0  0  0  0  0  0  0  0  0  0
    2.3960    1.3390   -0.0250 H   0  0  0  0  0  0  0  0  0  0  0  0
   -2.0120    3.6830    0.7360 H   0  0  0  0  0  0  0  0  0  0  0  0
   -1.9400   -1.5310    0.9780 H   0  0  0  0  0  0  0  0  0  0  0  0
    1.5580    0.2750    2.5120 H   0  0  0  0  0  0  0  0  0  0  0  0
    1.5570    4.5690   -1.0270 H   0  0  0  0  0  0  0  0  0  0  0  0
    1.7750    0.6360   -2.5550 H   0  0  0  0  0  0  0  0  0  0  0  0
   -2.5980   -2.1370    3.2180 H   0  0  0  0  0  0  0  0  0  0  0  0
    0.8810   -0.3370    4.7480 H   0  0  0  0  0  0  0  0  0  0  0  0
    1.7550    5.4400   -3.2680 H   0  0  0  0  0  0  0  0  0  0  0  0
    1.9700    1.5260   -4.7910 H   0  0  0  0  0  0  0  0  0  0  0  0
   -1.1960   -1.5420    5.1100 H   0  0  0  0  0  0  0  0  0  0  0  0
    1.9600    3.9270   -5.1570 H   0  0  0  0  0  0  0  0  0  0  0  0
  1  2  1  0  0  0  0
  1  3  1  0  0  0  0
  1  4  1  0  0  0  0
  2  5  1  0  0  0  0
  2 19  1  0  0  0  0
  2 20  1  0  0  0  0
  3 22  1  0  0  0  0
  3 21  1  0  0  0  0
  3  6  1  0  0  0  0
  4  7  1  0  0  0  0
  4  8  2  0  0  0  0
  5  9  2  0  0  0  0
  5 10  1  0  0  0  0
  6 11  2  0  0  0  0
  6 12  1  0  0  0  0
  7 23  1  0  0  0  0
  9 13  1  0  0  0  0
  9 24  1  0  0  0  0
 10 14  2  0  0  0  0
 10 25  1  0  0  0  0
 11 26  1  0  0  0  0
 11 15  1  0  0  0  0
 12 27  1  0  0  0  0
 12 16  2  0  0  0  0
 13 28  1  0  0  0  0
 13 17  2  0  0  0  0
 14 17  1  0  0  0  0
 14 29  1  0  0  0  0
 15 18  2  0  0  0  0
 15 30  1  0  0  0  0
 16 18  1  0  0  0  0
 16 31  1  0  0  0  0
 17 32  1  0  0  0  0
 18 33  1  0  0  0  0
M  END
