decoy-400
 OpenBabel06062114513D

 62 64  0  0  0  0  0  0  0  0999 V2000
    0.9250    1.9190    1.0820 C   0  0  0  0  0  0  0  0  0  0  0  0
    1.1220    0.6330    1.6160 C   0  0  0  0  0  0  0  0  0  0  0  0
    1.8300    2.2640    0.0620 C   0  0  0  0  0  0  0  0  0  0  0  0
   -0.1280    2.7120    1.4440 C   0  0  0  0  0  0  0  0  0  0  0  0
    1.6990    0.4020    2.9000 C   0  0  0  0  0  0  0  0  0  0  0  0
    0.7070   -0.4820    0.8440 C   0  0  0  0  0  0  0  0  0  0  0  0
    3.1670    2.5580    0.4270 C   0  0  0  0  0  0  0  0  0  0  0  0
    1.4700    2.3210   -1.3170 C   0  0  0  0  0  0  0  0  0  0  0  0
   -1.1910    2.1890    2.1730 C   0  0  0  0  0  0  0  0  0  0  0  0
   -0.3600    3.9890    0.9150 C   0  0  0  0  0  0  0  0  0  0  0  0
    1.8650   -0.9260    3.3540 C   0  0  0  0  0  0  0  0  0  0  0  0
    2.2400    1.6520    3.9990 S   0  0  0  0  0  0  0  0  0  0  0  0
    0.8740   -1.7940    1.3150 C   0  0  0  0  0  0  0  0  0  0  0  0
    4.1560    2.9230   -0.5170 C   0  0  0  0  0  0  0  0  0  0  0  0
    2.4520    2.6930   -2.2620 C   0  0  0  0  0  0  0  0  0  0  0  0
    0.1140    2.0180   -1.8550 C   0  0  0  0  0  0  0  0  0  0  0  0
   -2.4790    2.5310    1.9010 C   0  0  0  0  0  0  0  0  0  0  0  0
   -1.6300    4.3280    0.5800 C   0  0  0  0  0  0  0  0  0  0  0  0
    0.6690    5.0250    0.8360 C   0  0  0  0  0  0  0  0  0  0  0  0
    1.4570   -2.0170    2.5700 C   0  0  0  0  0  0  0  0  0  0  0  0
    1.6360    1.3310    5.5450 O   0  0  0  0  0  0  0  0  0  0  0  0
    3.9220    1.5550    4.1360 O   0  0  0  0  0  0  0  0  0  0  0  0
    1.8420    3.2520    3.6300 O   0  0  0  0  0  0  0  0  0  0  0  0
    3.7690    2.9980   -1.8770 C   0  0  0  0  0  0  0  0  0  0  0  0
    5.5600    3.2080   -0.0650 C   0  0  0  0  0  0  0  0  0  0  0  0
   -2.6770    3.5260    0.9510 C   0  0  0  0  0  0  0  0  0  0  0  0
   -3.5930    1.8920    2.6400 C   0  0  0  0  0  0  0  0  0  0  0  0
    4.6280    3.3600   -2.8650 O   0  0  0  0  0  0  0  0  0  0  0  0
    5.6250    4.4570    0.8570 C   0  0  0  0  0  0  0  0  0  0  0  0
    6.2230    1.9700    0.5990 C   0  0  0  0  0  0  0  0  0  0  0  0
   -3.7740    3.7530    0.4580 O   0  0  0  0  0  0  0  0  0  0  0  0
   -4.4380    2.9160    3.4490 C   0  0  0  0  0  0  0  0  0  0  0  0
   -4.4810    1.0050    1.7240 C   0  0  0  0  0  0  0  0  0  0  0  0
    0.2770   -0.3530   -0.0750 H   0  0  0  0  0  0  0  0  0  0  0  0
    3.4310    2.5130    1.4120 H   0  0  0  0  0  0  0  0  0  0  0  0
   -1.0040    1.5270    2.8910 H   0  0  0  0  0  0  0  0  0  0  0  0
    2.2860   -1.1150    4.2680 H   0  0  0  0  0  0  0  0  0  0  0  0
    0.5720   -2.5870    0.7440 H   0  0  0  0  0  0  0  0  0  0  0  0
    2.2080    2.7490   -3.2560 H   0  0  0  0  0  0  0  0  0  0  0  0
   -0.5990    1.7160   -1.0910 H   0  0  0  0  0  0  0  0  0  0  0  0
   -0.2870    2.9020   -2.3540 H   0  0  0  0  0  0  0  0  0  0  0  0
    0.1810    1.2060   -2.5810 H   0  0  0  0  0  0  0  0  0  0  0  0
   -1.8210    5.2150    0.1690 H   0  0  0  0  0  0  0  0  0  0  0  0
    1.6040    4.7220    1.3070 H   0  0  0  0  0  0  0  0  0  0  0  0
    0.8700    5.2680   -0.2090 H   0  0  0  0  0  0  0  0  0  0  0  0
    0.3360    5.9300    1.3490 H   0  0  0  0  0  0  0  0  0  0  0  0
    1.5820   -2.9720    2.9140 H   0  0  0  0  0  0  0  0  0  0  0  0
    6.1870    3.4430   -0.9280 H   0  0  0  0  0  0  0  0  0  0  0  0
   -3.1900    1.2030    3.3920 H   0  0  0  0  0  0  0  0  0  0  0  0
    5.1460    4.1080   -2.5010 H   0  0  0  0  0  0  0  0  0  0  0  0
    6.6640    4.7060    1.0820 H   0  0  0  0  0  0  0  0  0  0  0  0
    5.1700    5.3170    0.3600 H   0  0  0  0  0  0  0  0  0  0  0  0
    5.1030    4.2830    1.7990 H   0  0  0  0  0  0  0  0  0  0  0  0
    6.1690    1.1090   -0.0710 H   0  0  0  0  0  0  0  0  0  0  0  0
    7.2760    2.1720    0.8080 H   0  0  0  0  0  0  0  0  0  0  0  0
    5.7320    1.7110    1.5390 H   0  0  0  0  0  0  0  0  0  0  0  0
   -5.1610    2.3930    4.0790 H   0  0  0  0  0  0  0  0  0  0  0  0
   -3.7910    3.5110    4.0970 H   0  0  0  0  0  0  0  0  0  0  0  0
   -4.9860    3.5900    2.7890 H   0  0  0  0  0  0  0  0  0  0  0  0
   -3.8620    0.2970    1.1670 H   0  0  0  0  0  0  0  0  0  0  0  0
   -5.1890    0.4330    2.3280 H   0  0  0  0  0  0  0  0  0  0  0  0
   -5.0510    1.6030    1.0130 H   0  0  0  0  0  0  0  0  0  0  0  0
  1  4  2  0  0  0  0
  1  2  1  0  0  0  0
  1  3  1  0  0  0  0
  2  5  2  0  0  0  0
  2  6  1  0  0  0  0
  3  7  2  0  0  0  0
  3  8  1  0  0  0  0
  4  9  1  0  0  0  0
  4 10  1  0  0  0  0
  5 11  1  0  0  0  0
  5 12  1  0  0  0  0
  6 13  2  0  0  0  0
  6 34  1  0  0  0  0
  7 35  1  0  0  0  0
  7 14  1  0  0  0  0
  8 15  2  0  0  0  0
  8 16  1  0  0  0  0
  9 36  1  0  0  0  0
  9 17  2  0  0  0  0
 10 18  2  0  0  0  0
 10 19  1  0  0  0  0
 11 37  1  0  0  0  0
 11 20  2  0  0  0  0
 12 22  2  0  0  0  0
 12 21  2  0  0  0  0
 12 23  1  0  0  0  0
 13 20  1  0  0  0  0
 13 38  1  0  0  0  0
 14 25  1  0  0  0  0
 14 24  2  0  0  0  0
 15 24  1  0  0  0  0
 15 39  1  0  0  0  0
 16 40  1  0  0  0  0
 16 41  1  0  0  0  0
 16 42  1  0  0  0  0
 17 27  1  0  0  0  0
 17 26  1  0  0  0  0
 18 26  1  0  0  0  0
 18 43  1  0  0  0  0
 19 44  1  0  0  0  0
 19 46  1  0  0  0  0
 19 45  1  0  0  0  0
 20 47  1  0  0  0  0
 24 28  1  0  0  0  0
 25 30  1  0  0  0  0
 25 29  1  0  0  0  0
 25 48  1  0  0  0  0
 26 31  2  0  0  0  0
 27 49  1  0  0  0  0
 27 32  1  0  0  0  0
 27 33  1  0  0  0  0
 28 50  1  0  0  0  0
 29 51  1  0  0  0  0
 29 53  1  0  0  0  0
 29 52  1  0  0  0  0
 30 55  1  0  0  0  0
 30 56  1  0  0  0  0
 30 54  1  0  0  0  0
 32 57  1  0  0  0  0
 32 58  1  0  0  0  0
 32 59  1  0  0  0  0
 33 61  1  0  0  0  0
 33 60  1  0  0  0  0
 33 62  1  0  0  0  0
M  END
