decoy-93
 OpenBabel06062114503D

 36 39  0  0  0  0  0  0  0  0999 V2000
   -0.0140    1.3570    0.0230 C   0  0  0  0  0  0  0  0  0  0  0  0
   -0.0030    0.0090    0.0150 C   0  0  0  0  0  0  0  0  0  0  0  0
    1.0520    2.2000    0.0180 C   0  0  0  0  0  0  0  0  0  0  0  0
   -1.1190    2.0970    0.0350 N   0  0  0  0  0  0  0  0  0  0  0  0
   -1.0680   -0.8340    0.0210 C   0  0  0  0  0  0  0  0  0  0  0  0
    1.1020   -0.7300    0.0010 N   0  0  0  0  0  0  0  0  0  0  0  0
    0.5860    3.4810    0.0290 C   0  0  0  0  0  0  0  0  0  0  0  0
    2.2390    1.9050    0.0150 O   0  0  0  0  0  0  0  0  0  0  0  0
   -0.8010    3.3970    0.0390 C   0  0  0  0  0  0  0  0  0  0  0  0
   -0.6030   -2.1150    0.0100 C   0  0  0  0  0  0  0  0  0  0  0  0
   -2.2550   -0.5390    0.0420 O   0  0  0  0  0  0  0  0  0  0  0  0
    0.7840   -2.0300   -0.0040 C   0  0  0  0  0  0  0  0  0  0  0  0
    1.2310    4.7330    0.0290 C   0  0  0  0  0  0  0  0  0  0  0  0
   -1.6030    4.5490    0.0480 C   0  0  0  0  0  0  0  0  0  0  0  0
   -1.2470   -3.3670    0.0080 C   0  0  0  0  0  0  0  0  0  0  0  0
    1.5870   -3.1820   -0.0210 C   0  0  0  0  0  0  0  0  0  0  0  0
    0.4430    5.9080    0.0440 C   0  0  0  0  0  0  0  0  0  0  0  0
   -0.9700    5.8090    0.0480 C   0  0  0  0  0  0  0  0  0  0  0  0
   -0.4590   -4.5420   -0.0030 C   0  0  0  0  0  0  0  0  0  0  0  0
    0.9540   -4.4430   -0.0230 C   0  0  0  0  0  0  0  0  0  0  0  0
    1.2080    7.4710    0.0320 S   0  0  0  0  0  0  0  0  0  0  0  0
   -1.2250   -6.1040   -0.0180 S   0  0  0  0  0  0  0  0  0  0  0  0
    1.3750    7.9860   -1.5690 O   0  0  0  0  0  0  0  0  0  0  0  0
    0.2740    8.6100    0.8620 O   0  0  0  0  0  0  0  0  0  0  0  0
    2.7440    7.4100    0.7360 O   0  0  0  0  0  0  0  0  0  0  0  0
   -1.4210   -6.6020   -1.6210 O   0  0  0  0  0  0  0  0  0  0  0  0
   -0.2760   -7.2520    0.7820 O   0  0  0  0  0  0  0  0  0  0  0  0
   -2.7470   -6.0510    0.7150 O   0  0  0  0  0  0  0  0  0  0  0  0
   -2.0250    1.7520    0.0390 H   0  0  0  0  0  0  0  0  0  0  0  0
    2.0090   -0.3860   -0.0080 H   0  0  0  0  0  0  0  0  0  0  0  0
    2.2520    4.7820    0.0150 H   0  0  0  0  0  0  0  0  0  0  0  0
   -2.6220    4.4730    0.0520 H   0  0  0  0  0  0  0  0  0  0  0  0
   -2.2680   -3.4150    0.0120 H   0  0  0  0  0  0  0  0  0  0  0  0
    2.6060   -3.1070   -0.0340 H   0  0  0  0  0  0  0  0  0  0  0  0
   -1.5460    6.6540    0.0490 H   0  0  0  0  0  0  0  0  0  0  0  0
    1.5300   -5.2870   -0.0410 H   0  0  0  0  0  0  0  0  0  0  0  0
  1  4  1  0  0  0  0
  1  2  2  0  0  0  0
  1  3  1  0  0  0  0
  2  5  1  0  0  0  0
  2  6  1  0  0  0  0
  3  7  1  0  0  0  0
  3  8  2  0  0  0  0
  4  9  1  0  0  0  0
  4 29  1  0  0  0  0
  5 11  2  0  0  0  0
  5 10  1  0  0  0  0
  6 12  1  0  0  0  0
  6 30  1  0  0  0  0
  7 13  2  0  0  0  0
  7  9  1  0  0  0  0
  9 14  2  0  0  0  0
 10 12  2  0  0  0  0
 10 15  1  0  0  0  0
 12 16  1  0  0  0  0
 13 17  1  0  0  0  0
 13 31  1  0  0  0  0
 14 32  1  0  0  0  0
 14 18  1  0  0  0  0
 15 33  1  0  0  0  0
 15 19  2  0  0  0  0
 16 20  2  0  0  0  0
 16 34  1  0  0  0  0
 17 18  2  0  0  0  0
 17 21  1  0  0  0  0
 18 35  1  0  0  0  0
 19 20  1  0  0  0  0
 19 22  1  0  0  0  0
 20 36  1  0  0  0  0
 21 25  2  0  0  0  0
 21 24  1  0  0  0  0
 21 23  2  0  0  0  0
 22 28  2  0  0  0  0
 22 27  1  0  0  0  0
 22 26  2  0  0  0  0
M  END
