decoy-395
 OpenBabel06062114513D

 35 34  0  0  0  0  0  0  0  0999 V2000
   -0.1300    1.3790    0.2160 P   0  0  0  0  0  0  0  0  0  0  0  0
   -0.0250   -0.1680    0.0430 O   0  0  0  0  0  0  0  0  0  0  0  0
    1.2820    2.0390    0.2560 O   0  0  0  0  0  0  0  0  0  0  0  0
   -0.8990    2.0400   -0.9680 O   0  0  0  0  0  0  0  0  0  0  0  0
   -0.8180    1.6720    1.4490 O   0  0  0  0  0  0  0  0  0  0  0  0
    0.6430   -0.6210   -1.1530 C   0  0  0  0  0  0  0  0  0  0  0  0
    2.1580    1.6120    1.3180 C   0  0  0  0  0  0  0  0  0  0  0  0
   -2.2690    1.6260   -1.1540 C   0  0  0  0  0  0  0  0  0  0  0  0
    0.7420   -2.1670   -1.1340 C   0  0  0  0  0  0  0  0  0  0  0  0
    3.5530    2.2600    1.1290 C   0  0  0  0  0  0  0  0  0  0  0  0
   -2.8580    2.3320   -2.4020 C   0  0  0  0  0  0  0  0  0  0  0  0
    1.3530   -2.7250   -2.4460 C   0  0  0  0  0  0  0  0  0  0  0  0
    1.6940   -2.6790    0.2650 Cl  0  0  0  0  0  0  0  0  0  0  0  0
    4.5110    1.9250    2.3020 C   0  0  0  0  0  0  0  0  0  0  0  0
    4.2440    1.7330   -0.4100 Cl  0  0  0  0  0  0  0  0  0  0  0  0
   -4.3030    1.8580   -2.7090 C   0  0  0  0  0  0  0  0  0  0  0  0
   -2.8140    4.0840   -2.1690 Cl  0  0  0  0  0  0  0  0  0  0  0  0
    1.2880   -4.4840   -2.5290 Cl  0  0  0  0  0  0  0  0  0  0  0  0
    6.0290    2.8170    2.2110 Cl  0  0  0  0  0  0  0  0  0  0  0  0
   -4.9110    2.4850   -4.2390 Cl  0  0  0  0  0  0  0  0  0  0  0  0
    0.0740   -0.3150   -2.0370 H   0  0  0  0  0  0  0  0  0  0  0  0
    1.6540   -0.2060   -1.2300 H   0  0  0  0  0  0  0  0  0  0  0  0
    1.7490    1.9280    2.2830 H   0  0  0  0  0  0  0  0  0  0  0  0
    2.2760    0.5220    1.3290 H   0  0  0  0  0  0  0  0  0  0  0  0
   -2.3220    0.5430   -1.3100 H   0  0  0  0  0  0  0  0  0  0  0  0
   -2.8750    1.8840   -0.2790 H   0  0  0  0  0  0  0  0  0  0  0  0
   -0.2670   -2.5730   -1.0190 H   0  0  0  0  0  0  0  0  0  0  0  0
    3.4230    3.3450    1.0840 H   0  0  0  0  0  0  0  0  0  0  0  0
   -2.2230    2.0940   -3.2600 H   0  0  0  0  0  0  0  0  0  0  0  0
    0.8010   -2.3410   -3.3050 H   0  0  0  0  0  0  0  0  0  0  0  0
    2.3950   -2.4120   -2.5400 H   0  0  0  0  0  0  0  0  0  0  0  0
    4.0410    2.1840    3.2530 H   0  0  0  0  0  0  0  0  0  0  0  0
    4.7370    0.8560    2.3130 H   0  0  0  0  0  0  0  0  0  0  0  0
   -4.3310    0.7680   -2.7720 H   0  0  0  0  0  0  0  0  0  0  0  0
   -4.9820    2.1700   -1.9110 H   0  0  0  0  0  0  0  0  0  0  0  0
  1  3  1  0  0  0  0
  1  5  2  0  0  0  0
  1  2  1  0  0  0  0
  1  4  1  0  0  0  0
  2  6  1  0  0  0  0
  3  7  1  0  0  0  0
  4  8  1  0  0  0  0
  6  9  1  0  0  0  0
  6 21  1  0  0  0  0
  6 22  1  0  0  0  0
  7 24  1  0  0  0  0
  7 23  1  0  0  0  0
  7 10  1  0  0  0  0
  8 26  1  0  0  0  0
  8 11  1  0  0  0  0
  8 25  1  0  0  0  0
  9 27  1  0  0  0  0
  9 13  1  0  0  0  0
  9 12  1  0  0  0  0
 10 28  1  0  0  0  0
 10 14  1  0  0  0  0
 10 15  1  0  0  0  0
 11 29  1  0  0  0  0
 11 17  1  0  0  0  0
 11 16  1  0  0  0  0
 12 18  1  0  0  0  0
 12 30  1  0  0  0  0
 12 31  1  0  0  0  0
 14 33  1  0  0  0  0
 14 32  1  0  0  0  0
 14 19  1  0  0  0  0
 16 35  1  0  0  0  0
 16 20  1  0  0  0  0
 16 34  1  0  0  0  0
M  END
