decoy-42
 OpenBabel06062114503D

 44 45  0  0  0  0  0  0  0  0999 V2000
   -0.1810    1.3010    0.2810 C   0  0  0  0  0  0  0  0  0  0  0  0
   -0.0090   -0.1630    0.1030 C   0  0  0  0  0  0  0  0  0  0  0  0
    0.8360    2.0620    0.9060 C   0  0  0  0  0  0  0  0  0  0  0  0
   -1.3460    1.9660   -0.1690 C   0  0  0  0  0  0  0  0  0  0  0  0
    0.0430   -0.8150    1.3730 N   0  0  0  0  0  0  0  0  0  0  0  0
    0.6900    3.4510    1.0800 C   0  0  0  0  0  0  0  0  0  0  0  0
   -1.4930    3.3550    0.0050 C   0  0  0  0  0  0  0  0  0  0  0  0
    0.2280   -2.1130    1.5700 C   0  0  0  0  0  0  0  0  0  0  0  0
   -0.4750    4.0980    0.6300 C   0  0  0  0  0  0  0  0  0  0  0  0
    0.2700   -2.6230    2.9350 C   0  0  0  0  0  0  0  0  0  0  0  0
    0.3590   -2.8780    0.6220 O   0  0  0  0  0  0  0  0  0  0  0  0
    1.5080   -2.1020    3.7280 C   0  0  0  0  0  0  0  0  0  0  0  0
    0.2650   -4.0540    2.9630 O   0  0  0  0  0  0  0  0  0  0  0  0
    1.4940   -2.5240    5.1220 C   0  0  0  0  0  0  0  0  0  0  0  0
    2.7020   -2.5250    3.0610 O   0  0  0  0  0  0  0  0  0  0  0  0
    0.5480   -2.0590    5.9270 N   0  0  0  0  0  0  0  0  0  0  0  0
    2.3480   -3.2960    5.5420 O   0  0  0  0  0  0  0  0  0  0  0  0
    0.3920   -2.3870    7.3090 C   0  0  0  0  0  0  0  0  0  0  0  0
   -0.8080   -1.7140    7.8660 C   0  0  0  0  0  0  0  0  0  0  0  0
   -2.0960   -2.0510    7.3880 C   0  0  0  0  0  0  0  0  0  0  0  0
   -0.6960   -0.7350    8.8820 C   0  0  0  0  0  0  0  0  0  0  0  0
   -3.2440   -1.4230    7.9080 C   0  0  0  0  0  0  0  0  0  0  0  0
   -1.8440   -0.1070    9.4030 C   0  0  0  0  0  0  0  0  0  0  0  0
   -3.1170   -0.4510    8.9160 C   0  0  0  0  0  0  0  0  0  0  0  0
   -0.8330   -0.5880   -0.4780 H   0  0  0  0  0  0  0  0  0  0  0  0
    0.9180   -0.3450   -0.4470 H   0  0  0  0  0  0  0  0  0  0  0  0
    1.6910    1.6080    1.2370 H   0  0  0  0  0  0  0  0  0  0  0  0
   -2.0980    1.4440   -0.6250 H   0  0  0  0  0  0  0  0  0  0  0  0
   -0.0610   -0.2580    2.1620 H   0  0  0  0  0  0  0  0  0  0  0  0
    1.4310    3.9910    1.5330 H   0  0  0  0  0  0  0  0  0  0  0  0
   -2.3390    3.8250   -0.3220 H   0  0  0  0  0  0  0  0  0  0  0  0
   -0.5820    5.1070    0.7560 H   0  0  0  0  0  0  0  0  0  0  0  0
   -0.6470   -2.2970    3.4350 H   0  0  0  0  0  0  0  0  0  0  0  0
    1.5130   -1.0080    3.7160 H   0  0  0  0  0  0  0  0  0  0  0  0
   -0.5670   -4.3160    2.5140 H   0  0  0  0  0  0  0  0  0  0  0  0
    3.4360   -2.1100    3.5630 H   0  0  0  0  0  0  0  0  0  0  0  0
   -0.0990   -1.4470    5.5410 H   0  0  0  0  0  0  0  0  0  0  0  0
    0.2740   -3.4680    7.4230 H   0  0  0  0  0  0  0  0  0  0  0  0
    1.2970   -2.0880    7.8460 H   0  0  0  0  0  0  0  0  0  0  0  0
   -2.2070   -2.7580    6.6560 H   0  0  0  0  0  0  0  0  0  0  0  0
    0.2200   -0.4700    9.2500 H   0  0  0  0  0  0  0  0  0  0  0  0
   -4.1690   -1.6750    7.5540 H   0  0  0  0  0  0  0  0  0  0  0  0
   -1.7520    0.6000   10.1360 H   0  0  0  0  0  0  0  0  0  0  0  0
   -3.9500    0.0050    9.2940 H   0  0  0  0  0  0  0  0  0  0  0  0
  1  3  2  0  0  0  0
  1  2  1  0  0  0  0
  1  4  1  0  0  0  0
  2  5  1  0  0  0  0
  2 25  1  0  0  0  0
  2 26  1  0  0  0  0
  3  6  1  0  0  0  0
  3 27  1  0  0  0  0
  4  7  2  0  0  0  0
  4 28  1  0  0  0  0
  5  8  1  0  0  0  0
  5 29  1  0  0  0  0
  6 30  1  0  0  0  0
  6  9  2  0  0  0  0
  7  9  1  0  0  0  0
  7 31  1  0  0  0  0
  8 10  1  0  0  0  0
  8 11  2  0  0  0  0
  9 32  1  0  0  0  0
 10 13  1  0  0  0  0
 10 33  1  0  0  0  0
 10 12  1  0  0  0  0
 12 34  1  0  0  0  0
 12 14  1  0  0  0  0
 12 15  1  0  0  0  0
 13 35  1  0  0  0  0
 14 17  2  0  0  0  0
 14 16  1  0  0  0  0
 15 36  1  0  0  0  0
 16 18  1  0  0  0  0
 16 37  1  0  0  0  0
 18 38  1  0  0  0  0
 18 39  1  0  0  0  0
 18 19  1  0  0  0  0
 19 21  2  0  0  0  0
 19 20  1  0  0  0  0
 20 22  2  0  0  0  0
 20 40  1  0  0  0  0
 21 41  1  0  0  0  0
 21 23  1  0  0  0  0
 22 24  1  0  0  0  0
 22 42  1  0  0  0  0
 23 43  1  0  0  0  0
 23 24  2  0  0  0  0
 24 44  1  0  0  0  0
M  END
