decoy-422
 OpenBabel06062114513D

 54 56  0  0  0  0  0  0  0  0999 V2000
   -2.0100    1.0860   -0.5890 C   0  0  0  0  0  0  0  0  0  0  0  0
   -1.5430    0.2200   -1.6120 C   0  0  0  0  0  0  0  0  0  0  0  0
   -1.1390    1.5640    0.3750 C   0  0  0  0  0  0  0  0  0  0  0  0
   -3.3820    1.4470   -0.5570 C   0  0  0  0  0  0  0  0  0  0  0  0
   -0.2180   -0.1280   -1.7020 O   0  0  0  0  0  0  0  0  0  0  0  0
   -2.4340   -0.2410   -2.6040 C   0  0  0  0  0  0  0  0  0  0  0  0
   -0.2190    2.6550    0.0780 C   0  0  0  0  0  0  0  0  0  0  0  0
   -1.2090    1.0680    1.4920 O   0  0  0  0  0  0  0  0  0  0  0  0
   -4.2630    0.9590   -1.5420 C   0  0  0  0  0  0  0  0  0  0  0  0
   -3.9050    2.2680    0.3950 O   0  0  0  0  0  0  0  0  0  0  0  0
    0.1270   -1.4230   -1.1640 C   0  0  0  0  0  0  0  0  0  0  0  0
   -3.7900    0.1200   -2.5640 C   0  0  0  0  0  0  0  0  0  0  0  0
    0.6820    3.1150    1.2600 C   0  0  0  0  0  0  0  0  0  0  0  0
   -0.2030   -1.4470    0.2480 O   0  0  0  0  0  0  0  0  0  0  0  0
    1.6430   -1.6750   -1.4500 C   0  0  0  0  0  0  0  0  0  0  0  0
    1.6070    4.2190    0.8820 C   0  0  0  0  0  0  0  0  0  0  0  0
    0.4900   -2.4260    1.0460 C   0  0  0  0  0  0  0  0  0  0  0  0
    2.4990   -1.3370   -0.2010 C   0  0  0  0  0  0  0  0  0  0  0  0
    1.8680   -3.0400   -1.8080 O   0  0  0  0  0  0  0  0  0  0  0  0
    1.4250    5.5290    1.3840 C   0  0  0  0  0  0  0  0  0  0  0  0
    2.6980    3.9720    0.0150 C   0  0  0  0  0  0  0  0  0  0  0  0
    2.0270   -2.1260    1.0600 C   0  0  0  0  0  0  0  0  0  0  0  0
   -0.1310   -2.4330    2.4630 C   0  0  0  0  0  0  0  0  0  0  0  0
    2.4190    0.0660    0.0530 O   0  0  0  0  0  0  0  0  0  0  0  0
    2.3060    6.5660    1.0230 C   0  0  0  0  0  0  0  0  0  0  0  0
    3.5790    5.0080   -0.3450 C   0  0  0  0  0  0  0  0  0  0  0  0
    2.7470   -3.3550    1.1570 O   0  0  0  0  0  0  0  0  0  0  0  0
   -1.5160   -2.7600    2.3990 O   0  0  0  0  0  0  0  0  0  0  0  0
    3.3860    6.3080    0.1570 C   0  0  0  0  0  0  0  0  0  0  0  0
    4.2450    7.2960   -0.2000 O   0  0  0  0  0  0  0  0  0  0  0  0
   -2.0950   -0.8440   -3.3570 H   0  0  0  0  0  0  0  0  0  0  0  0
    0.4230    2.3440   -0.7500 H   0  0  0  0  0  0  0  0  0  0  0  0
   -0.8060    3.5140   -0.2600 H   0  0  0  0  0  0  0  0  0  0  0  0
   -5.2510    1.2200   -1.5210 H   0  0  0  0  0  0  0  0  0  0  0  0
   -3.1500    2.5870    0.9310 H   0  0  0  0  0  0  0  0  0  0  0  0
   -0.4620   -2.1930   -1.6730 H   0  0  0  0  0  0  0  0  0  0  0  0
   -4.4320   -0.2230   -3.2820 H   0  0  0  0  0  0  0  0  0  0  0  0
    0.0340    3.4280    2.0840 H   0  0  0  0  0  0  0  0  0  0  0  0
    1.2760    2.2710    1.6220 H   0  0  0  0  0  0  0  0  0  0  0  0
    1.9800   -1.0690   -2.2960 H   0  0  0  0  0  0  0  0  0  0  0  0
    0.3140   -3.4140    0.6060 H   0  0  0  0  0  0  0  0  0  0  0  0
    3.5500   -1.5620   -0.4060 H   0  0  0  0  0  0  0  0  0  0  0  0
    1.3440   -3.1780   -2.6260 H   0  0  0  0  0  0  0  0  0  0  0  0
    0.6470    5.7410    2.0130 H   0  0  0  0  0  0  0  0  0  0  0  0
    2.8610    3.0340   -0.3570 H   0  0  0  0  0  0  0  0  0  0  0  0
    2.2910   -1.5390    1.9450 H   0  0  0  0  0  0  0  0  0  0  0  0
    0.3710   -3.1730    3.0890 H   0  0  0  0  0  0  0  0  0  0  0  0
   -0.0270   -1.4500    2.9260 H   0  0  0  0  0  0  0  0  0  0  0  0
    2.7730    0.4930   -0.7550 H   0  0  0  0  0  0  0  0  0  0  0  0
    2.1590    7.5080    1.3940 H   0  0  0  0  0  0  0  0  0  0  0  0
    4.3630    4.8130   -0.9730 H   0  0  0  0  0  0  0  0  0  0  0  0
    2.4460   -3.7630    1.9960 H   0  0  0  0  0  0  0  0  0  0  0  0
   -1.8220   -2.7410    3.3310 H   0  0  0  0  0  0  0  0  0  0  0  0
    3.9350    8.1010    0.2670 H   0  0  0  0  0  0  0  0  0  0  0  0
  1  4  2  0  0  0  0
  1  3  1  0  0  0  0
  1  2  1  0  0  0  0
  2  5  1  0  0  0  0
  2  6  2  0  0  0  0
  3  8  2  0  0  0  0
  3  7  1  0  0  0  0
  4 10  1  0  0  0  0
  4  9  1  0  0  0  0
  5 11  1  0  0  0  0
  6 12  1  0  0  0  0
  6 31  1  0  0  0  0
  7 13  1  0  0  0  0
  7 32  1  0  0  0  0
  7 33  1  0  0  0  0
  9 34  1  0  0  0  0
  9 12  2  0  0  0  0
 10 35  1  0  0  0  0
 11 15  1  0  0  0  0
 11 14  1  0  0  0  0
 11 36  1  0  0  0  0
 12 37  1  0  0  0  0
 13 39  1  0  0  0  0
 13 38  1  0  0  0  0
 13 16  1  0  0  0  0
 14 17  1  0  0  0  0
 15 18  1  0  0  0  0
 15 19  1  0  0  0  0
 15 40  1  0  0  0  0
 16 20  2  0  0  0  0
 16 21  1  0  0  0  0
 17 22  1  0  0  0  0
 17 23  1  0  0  0  0
 17 41  1  0  0  0  0
 18 24  1  0  0  0  0
 18 22  1  0  0  0  0
 18 42  1  0  0  0  0
 19 43  1  0  0  0  0
 20 44  1  0  0  0  0
 20 25  1  0  0  0  0
 21 26  2  0  0  0  0
 21 45  1  0  0  0  0
 22 27  1  0  0  0  0
 22 46  1  0  0  0  0
 23 48  1  0  0  0  0
 23 47  1  0  0  0  0
 23 28  1  0  0  0  0
 24 49  1  0  0  0  0
 25 50  1  0  0  0  0
 25 29  2  0  0  0  0
 26 29  1  0  0  0  0
 26 51  1  0  0  0  0
 27 52  1  0  0  0  0
 28 53  1  0  0  0  0
 29 30  1  0  0  0  0
 30 54  1  0  0  0  0
M  END
