decoy-709
 OpenBabel06062114513D

 32 34  0  0  0  0  0  0  0  0999 V2000
    0.0550    1.4580    0.0760 C   0  0  0  0  0  0  0  0  0  0  0  0
    0.1620    0.0870    0.4330 C   0  0  0  0  0  0  0  0  0  0  0  0
    1.2600    2.1310   -0.1610 C   0  0  0  0  0  0  0  0  0  0  0  0
   -1.2370    2.0400   -0.0200 C   0  0  0  0  0  0  0  0  0  0  0  0
    1.3930   -0.5340    0.5150 O   0  0  0  0  0  0  0  0  0  0  0  0
   -0.9890   -0.6710    0.7170 C   0  0  0  0  0  0  0  0  0  0  0  0
    2.4450    1.4490   -0.2560 C   0  0  0  0  0  0  0  0  0  0  0  0
    1.2990    3.3530   -0.1060 O   0  0  0  0  0  0  0  0  0  0  0  0
   -2.3820    1.2720    0.2710 C   0  0  0  0  0  0  0  0  0  0  0  0
   -1.4380    3.3290   -0.3990 O   0  0  0  0  0  0  0  0  0  0  0  0
    2.4850    0.1380    0.0730 C   0  0  0  0  0  0  0  0  0  0  0  0
   -2.2630   -0.0800    0.6410 C   0  0  0  0  0  0  0  0  0  0  0  0
    3.5540    2.0690   -0.6710 O   0  0  0  0  0  0  0  0  0  0  0  0
    3.6480   -0.6060    0.0060 C   0  0  0  0  0  0  0  0  0  0  0  0
   -3.3810   -0.7980    0.9120 O   0  0  0  0  0  0  0  0  0  0  0  0
    4.1200   -1.0920   -1.2340 C   0  0  0  0  0  0  0  0  0  0  0  0
    4.3700   -0.9030    1.1840 C   0  0  0  0  0  0  0  0  0  0  0  0
    5.3020   -1.8580   -1.3000 C   0  0  0  0  0  0  0  0  0  0  0  0
    5.5490   -1.6670    1.1190 C   0  0  0  0  0  0  0  0  0  0  0  0
    6.0190   -2.1450   -0.1190 C   0  0  0  0  0  0  0  0  0  0  0  0
    5.7500   -2.3200   -2.4950 O   0  0  0  0  0  0  0  0  0  0  0  0
    7.1610   -2.8790   -0.1420 O   0  0  0  0  0  0  0  0  0  0  0  0
   -0.8970   -1.6560    0.9780 H   0  0  0  0  0  0  0  0  0  0  0  0
   -3.3100    1.6960    0.2050 H   0  0  0  0  0  0  0  0  0  0  0  0
   -0.7150    3.5360   -1.0260 H   0  0  0  0  0  0  0  0  0  0  0  0
    3.2720    2.9360   -1.0310 H   0  0  0  0  0  0  0  0  0  0  0  0
   -3.0710   -1.6990    1.1420 H   0  0  0  0  0  0  0  0  0  0  0  0
    3.6040   -0.8910   -2.0950 H   0  0  0  0  0  0  0  0  0  0  0  0
    4.0440   -0.5650    2.0940 H   0  0  0  0  0  0  0  0  0  0  0  0
    6.0650   -1.8740    1.9770 H   0  0  0  0  0  0  0  0  0  0  0  0
    5.1060   -2.0050   -3.1640 H   0  0  0  0  0  0  0  0  0  0  0  0
    7.3160   -3.1120   -1.0810 H   0  0  0  0  0  0  0  0  0  0  0  0
  1  2  2  0  0  0  0
  1  3  1  0  0  0  0
  1  4  1  0  0  0  0
  2  5  1  0  0  0  0
  2  6  1  0  0  0  0
  3  8  2  0  0  0  0
  3  7  1  0  0  0  0
  4  9  2  0  0  0  0
  4 10  1  0  0  0  0
  5 11  1  0  0  0  0
  6 23  1  0  0  0  0
  6 12  2  0  0  0  0
  7 11  2  0  0  0  0
  7 13  1  0  0  0  0
  9 12  1  0  0  0  0
  9 24  1  0  0  0  0
 10 25  1  0  0  0  0
 11 14  1  0  0  0  0
 12 15  1  0  0  0  0
 13 26  1  0  0  0  0
 14 17  2  0  0  0  0
 14 16  1  0  0  0  0
 15 27  1  0  0  0  0
 16 18  2  0  0  0  0
 16 28  1  0  0  0  0
 17 29  1  0  0  0  0
 17 19  1  0  0  0  0
 18 20  1  0  0  0  0
 18 21  1  0  0  0  0
 19 30  1  0  0  0  0
 19 20  2  0  0  0  0
 20 22  1  0  0  0  0
 21 31  1  0  0  0  0
 22 32  1  0  0  0  0
M  END
