decoy-66
 OpenBabel06062114503D

 42 44  0  0  0  0  0  0  0  0999 V2000
   -0.0460    1.4790    0.1280 C   0  0  0  0  0  0  0  0  0  0  0  0
    0.0320    0.0300    0.2430 N   0  0  0  0  0  0  0  0  0  0  0  0
    1.2310    2.0680   -0.1570 O   0  0  0  0  0  0  0  0  0  0  0  0
   -0.5410    2.1820    1.4080 C   0  0  0  0  0  0  0  0  0  0  0  0
    0.9690   -0.5780    1.0020 C   0  0  0  0  0  0  0  0  0  0  0  0
   -0.8680   -0.7480   -0.4310 C   0  0  0  0  0  0  0  0  0  0  0  0
    1.2270    3.4250    0.3210 C   0  0  0  0  0  0  0  0  0  0  0  0
   -0.0360    3.6180    1.2030 C   0  0  0  0  0  0  0  0  0  0  0  0
   -1.9560    2.0900    1.5670 O   0  0  0  0  0  0  0  0  0  0  0  0
    1.0090   -1.9030    1.0870 N   0  0  0  0  0  0  0  0  0  0  0  0
    1.8240    0.0240    1.6380 O   0  0  0  0  0  0  0  0  0  0  0  0
   -0.8440   -2.0920   -0.3570 C   0  0  0  0  0  0  0  0  0  0  0  0
    2.5530    3.6920    1.0730 C   0  0  0  0  0  0  0  0  0  0  0  0
   -1.0010    4.4240    0.5250 O   0  0  0  0  0  0  0  0  0  0  0  0
    0.1260   -2.7030    0.4280 C   0  0  0  0  0  0  0  0  0  0  0  0
    3.6680    3.4840    0.2120 O   0  0  0  0  0  0  0  0  0  0  0  0
    0.1510   -4.0570    0.5030 N   0  0  0  0  0  0  0  0  0  0  0  0
    0.9810   -4.8370    1.1850 C   0  0  0  0  0  0  0  0  0  0  0  0
    0.8210   -6.2090    1.1180 C   0  0  0  0  0  0  0  0  0  0  0  0
    1.8860   -4.3940    1.8820 O   0  0  0  0  0  0  0  0  0  0  0  0
    0.6370   -6.9700    2.2980 C   0  0  0  0  0  0  0  0  0  0  0  0
    0.8410   -6.8780   -0.1290 C   0  0  0  0  0  0  0  0  0  0  0  0
    0.4730   -8.3660    2.2300 C   0  0  0  0  0  0  0  0  0  0  0  0
    0.6780   -8.2740   -0.1950 C   0  0  0  0  0  0  0  0  0  0  0  0
    0.4940   -9.0180    0.9840 C   0  0  0  0  0  0  0  0  0  0  0  0
   -0.7080    1.7750   -0.6970 H   0  0  0  0  0  0  0  0  0  0  0  0
   -0.0650    1.7560    2.2950 H   0  0  0  0  0  0  0  0  0  0  0  0
   -1.5770   -0.3310   -0.9900 H   0  0  0  0  0  0  0  0  0  0  0  0
    1.1870    4.0910   -0.5470 H   0  0  0  0  0  0  0  0  0  0  0  0
    0.1870    4.0910    2.1640 H   0  0  0  0  0  0  0  0  0  0  0  0
   -2.1370    1.1310    1.6650 H   0  0  0  0  0  0  0  0  0  0  0  0
   -1.5140   -2.6340   -0.8540 H   0  0  0  0  0  0  0  0  0  0  0  0
    2.5780    4.7240    1.4290 H   0  0  0  0  0  0  0  0  0  0  0  0
    2.6430    3.0210    1.9300 H   0  0  0  0  0  0  0  0  0  0  0  0
   -1.7620    4.4840    1.1400 H   0  0  0  0  0  0  0  0  0  0  0  0
    4.4530    3.6800    0.7650 H   0  0  0  0  0  0  0  0  0  0  0  0
   -0.5320   -4.5180   -0.0110 H   0  0  0  0  0  0  0  0  0  0  0  0
    0.6150   -6.5130    3.2140 H   0  0  0  0  0  0  0  0  0  0  0  0
    0.9790   -6.3550   -0.9990 H   0  0  0  0  0  0  0  0  0  0  0  0
    0.3380   -8.9070    3.0870 H   0  0  0  0  0  0  0  0  0  0  0  0
    0.6940   -8.7490   -1.1000 H   0  0  0  0  0  0  0  0  0  0  0  0
    0.3750  -10.0330    0.9360 H   0  0  0  0  0  0  0  0  0  0  0  0
  1  2  1  0  0  0  0
  1  4  1  0  0  0  0
  1  3  1  0  0  0  0
  1 26  1  0  0  0  0
  2  5  1  0  0  0  0
  2  6  1  0  0  0  0
  3  7  1  0  0  0  0
  4  8  1  0  0  0  0
  4  9  1  0  0  0  0
  4 27  1  0  0  0  0
  5 10  1  0  0  0  0
  5 11  2  0  0  0  0
  6 12  2  0  0  0  0
  6 28  1  0  0  0  0
  7 13  1  0  0  0  0
  7  8  1  0  0  0  0
  7 29  1  0  0  0  0
  8 30  1  0  0  0  0
  8 14  1  0  0  0  0
  9 31  1  0  0  0  0
 10 15  2  0  0  0  0
 12 15  1  0  0  0  0
 12 32  1  0  0  0  0
 13 33  1  0  0  0  0
 13 34  1  0  0  0  0
 13 16  1  0  0  0  0
 14 35  1  0  0  0  0
 15 17  1  0  0  0  0
 16 36  1  0  0  0  0
 17 18  1  0  0  0  0
 17 37  1  0  0  0  0
 18 20  2  0  0  0  0
 18 19  1  0  0  0  0
 19 21  2  0  0  0  0
 19 22  1  0  0  0  0
 21 38  1  0  0  0  0
 21 23  1  0  0  0  0
 22 24  2  0  0  0  0
 22 39  1  0  0  0  0
 23 40  1  0  0  0  0
 23 25  2  0  0  0  0
 24 25  1  0  0  0  0
 24 41  1  0  0  0  0
 25 42  1  0  0  0  0
M  END
