decoy-348
 OpenBabel06062114513D

 42 45  0  0  0  0  0  0  0  0999 V2000
   -0.9350    0.9120   -0.2320 C   0  0  0  0  0  0  0  0  0  0  0  0
   -1.3280   -0.3640   -0.2670 O   0  0  0  0  0  0  0  0  0  0  0  0
    0.2820    1.2110    0.0680 N   0  0  0  0  0  0  0  0  0  0  0  0
   -1.7650    1.8550   -0.5180 N   0  0  0  0  0  0  0  0  0  0  0  0
   -1.7270   -0.8040    0.9680 C   0  0  0  0  0  0  0  0  0  0  0  0
    0.6660    2.4410    0.1050 C   0  0  0  0  0  0  0  0  0  0  0  0
   -1.3890    3.0870   -0.5020 C   0  0  0  0  0  0  0  0  0  0  0  0
   -3.0840   -0.7160    1.3490 C   0  0  0  0  0  0  0  0  0  0  0  0
   -0.7980   -1.4040    1.8460 C   0  0  0  0  0  0  0  0  0  0  0  0
    1.9290    2.7470    0.4180 O   0  0  0  0  0  0  0  0  0  0  0  0
   -0.1740    3.3740   -0.1840 N   0  0  0  0  0  0  0  0  0  0  0  0
   -2.2590    4.0630   -0.7820 O   0  0  0  0  0  0  0  0  0  0  0  0
   -3.5000   -1.1910    2.6070 C   0  0  0  0  0  0  0  0  0  0  0  0
   -1.2140   -1.8780    3.1040 C   0  0  0  0  0  0  0  0  0  0  0  0
    2.1080    2.8290    1.7740 C   0  0  0  0  0  0  0  0  0  0  0  0
   -2.2880    4.3540   -2.1200 C   0  0  0  0  0  0  0  0  0  0  0  0
   -2.5650   -1.7690    3.4860 C   0  0  0  0  0  0  0  0  0  0  0  0
    1.9560    4.0650    2.4390 C   0  0  0  0  0  0  0  0  0  0  0  0
    2.5060    1.6910    2.5100 C   0  0  0  0  0  0  0  0  0  0  0  0
   -3.2160    3.7100   -2.9670 C   0  0  0  0  0  0  0  0  0  0  0  0
   -1.4410    5.3500   -2.6510 C   0  0  0  0  0  0  0  0  0  0  0  0
    2.1660    4.1540    3.8280 C   0  0  0  0  0  0  0  0  0  0  0  0
    2.7140    1.7800    3.8990 C   0  0  0  0  0  0  0  0  0  0  0  0
   -3.2700    4.0330   -4.3360 C   0  0  0  0  0  0  0  0  0  0  0  0
   -1.4960    5.6730   -4.0200 C   0  0  0  0  0  0  0  0  0  0  0  0
    2.5420    3.0120    4.5580 C   0  0  0  0  0  0  0  0  0  0  0  0
   -2.4080    5.0120   -4.8630 C   0  0  0  0  0  0  0  0  0  0  0  0
   -3.7680   -0.3010    0.7120 H   0  0  0  0  0  0  0  0  0  0  0  0
    0.1830   -1.4910    1.5720 H   0  0  0  0  0  0  0  0  0  0  0  0
   -4.4820   -1.1180    2.8820 H   0  0  0  0  0  0  0  0  0  0  0  0
   -0.5360   -2.3040    3.7400 H   0  0  0  0  0  0  0  0  0  0  0  0
   -2.8670   -2.1140    4.3990 H   0  0  0  0  0  0  0  0  0  0  0  0
    1.6880    4.8990    1.9120 H   0  0  0  0  0  0  0  0  0  0  0  0
    2.6380    0.7950    2.0350 H   0  0  0  0  0  0  0  0  0  0  0  0
   -3.8490    3.0020   -2.5880 H   0  0  0  0  0  0  0  0  0  0  0  0
   -0.7810    5.8390   -2.0410 H   0  0  0  0  0  0  0  0  0  0  0  0
    2.0470    5.0500    4.3060 H   0  0  0  0  0  0  0  0  0  0  0  0
    2.9940    0.9520    4.4280 H   0  0  0  0  0  0  0  0  0  0  0  0
   -3.9390    3.5580   -4.9470 H   0  0  0  0  0  0  0  0  0  0  0  0
   -0.8750    6.3910   -4.4010 H   0  0  0  0  0  0  0  0  0  0  0  0
    2.6950    3.0770    5.5670 H   0  0  0  0  0  0  0  0  0  0  0  0
   -2.4490    5.2480   -5.8570 H   0  0  0  0  0  0  0  0  0  0  0  0
  1  3  2  0  0  0  0
  1  2  1  0  0  0  0
  1  4  1  0  0  0  0
  2  5  1  0  0  0  0
  3  6  2  0  0  0  0
  4  7  2  0  0  0  0
  5  8  2  0  0  0  0
  5  9  1  0  0  0  0
  6 10  1  0  0  0  0
  6 11  1  0  0  0  0
  7 11  1  0  0  0  0
  7 12  1  0  0  0  0
  8 13  1  0  0  0  0
  8 28  1  0  0  0  0
  9 14  2  0  0  0  0
  9 29  1  0  0  0  0
 10 15  1  0  0  0  0
 12 16  1  0  0  0  0
 13 30  1  0  0  0  0
 13 17  2  0  0  0  0
 14 17  1  0  0  0  0
 14 31  1  0  0  0  0
 15 18  2  0  0  0  0
 15 19  1  0  0  0  0
 16 20  2  0  0  0  0
 16 21  1  0  0  0  0
 17 32  1  0  0  0  0
 18 22  1  0  0  0  0
 18 33  1  0  0  0  0
 19 23  2  0  0  0  0
 19 34  1  0  0  0  0
 20 35  1  0  0  0  0
 20 24  1  0  0  0  0
 21 36  1  0  0  0  0
 21 25  2  0  0  0  0
 22 37  1  0  0  0  0
 22 26  2  0  0  0  0
 23 38  1  0  0  0  0
 23 26  1  0  0  0  0
 24 27  2  0  0  0  0
 24 39  1  0  0  0  0
 25 27  1  0  0  0  0
 25 40  1  0  0  0  0
 26 41  1  0  0  0  0
 27 42  1  0  0  0  0
M  END
