decoy-341
 OpenBabel06062114513D

 30 31  0  0  0  0  0  0  0  0999 V2000
   -0.1410    1.7470    0.1370 S   0  0  0  0  0  0  0  0  0  0  0  0
   -0.0900    0.0010    0.0990 C   0  0  0  0  0  0  0  0  0  0  0  0
    1.3930    2.3460    0.5150 O   0  0  0  0  0  0  0  0  0  0  0  0
   -0.6250    2.4050   -1.3440 O   0  0  0  0  0  0  0  0  0  0  0  0
   -1.2190    2.2680    1.3300 O   0  0  0  0  0  0  0  0  0  0  0  0
    0.1360   -0.7350    1.2840 C   0  0  0  0  0  0  0  0  0  0  0  0
   -0.3200   -0.6560   -1.1290 C   0  0  0  0  0  0  0  0  0  0  0  0
    0.1080   -2.1430    1.2910 C   0  0  0  0  0  0  0  0  0  0  0  0
    0.3470   -0.1170    2.4800 O   0  0  0  0  0  0  0  0  0  0  0  0
   -0.0920   -2.0590   -1.1730 C   0  0  0  0  0  0  0  0  0  0  0  0
    0.1250   -2.7970    0.0290 C   0  0  0  0  0  0  0  0  0  0  0  0
   -0.0930   -2.7120   -2.4360 C   0  0  0  0  0  0  0  0  0  0  0  0
    0.3510   -4.2000   -0.0110 C   0  0  0  0  0  0  0  0  0  0  0  0
   -0.0390   -4.1220   -2.4410 C   0  0  0  0  0  0  0  0  0  0  0  0
    0.1750   -4.8480   -1.2500 C   0  0  0  0  0  0  0  0  0  0  0  0
   -0.2080   -4.9690   -3.9590 S   0  0  0  0  0  0  0  0  0  0  0  0
    0.2380   -6.2080   -1.2890 O   0  0  0  0  0  0  0  0  0  0  0  0
    1.1570   -5.9290   -4.2280 O   0  0  0  0  0  0  0  0  0  0  0  0
   -1.5560   -5.9870   -3.8890 O   0  0  0  0  0  0  0  0  0  0  0  0
   -0.3910   -3.9140   -5.2680 O   0  0  0  0  0  0  0  0  0  0  0  0
   -1.2990   -0.4920   -1.3810 H   0  0  0  0  0  0  0  0  0  0  0  0
   -0.7530   -2.4220    1.7700 H   0  0  0  0  0  0  0  0  0  0  0  0
    0.6300    0.7970    2.2730 H   0  0  0  0  0  0  0  0  0  0  0  0
   -0.9000   -2.4030   -2.9870 H   0  0  0  0  0  0  0  0  0  0  0  0
   -0.2150   -4.6720    0.7000 H   0  0  0  0  0  0  0  0  0  0  0  0
    0.4280   -6.4970   -0.3710 H   0  0  0  0  0  0  0  0  0  0  0  0
    0.2100   -0.1880   -1.8710 H   0  0  0  0  0  0  0  0  0  0  0  0
    0.8560   -2.4990    1.8960 H   0  0  0  0  0  0  0  0  0  0  0  0
    0.7130   -2.3730   -2.9690 H   0  0  0  0  0  0  0  0  0  0  0  0
    1.3150   -4.3730    0.2890 H   0  0  0  0  0  0  0  0  0  0  0  0
  1  3  2  0  0  0  0
  1  5  2  0  0  0  0
  1  2  1  0  0  0  0
  1  4  1  0  0  0  0
  2  6  2  0  0  0  0
  2  7  1  0  0  0  0
  6  8  1  0  0  0  0
  6  9  1  0  0  0  0
  7 10  1  0  0  0  0
  7 21  1  0  0  0  0
  7 27  1  0  0  0  0
  8 22  1  0  0  0  0
  8 28  1  0  0  0  0
  8 11  1  0  0  0  0
  9 23  1  0  0  0  0
 10 11  2  0  0  0  0
 10 12  1  0  0  0  0
 11 13  1  0  0  0  0
 12 14  1  0  0  0  0
 12 24  1  0  0  0  0
 12 29  1  0  0  0  0
 13 30  1  0  0  0  0
 13 25  1  0  0  0  0
 13 15  1  0  0  0  0
 14 15  2  0  0  0  0
 14 16  1  0  0  0  0
 15 17  1  0  0  0  0
 16 19  2  0  0  0  0
 16 18  2  0  0  0  0
 16 20  1  0  0  0  0
 17 26  1  0  0  0  0
M  END
