decoy-1008
 OpenBabel06062114513D

 49 49  0  0  0  0  0  0  0  0999 V2000
   -0.2380    1.4630   -0.1520 C   0  0  0  0  0  0  0  0  0  0  0  0
   -0.1980    0.1730    0.4270 C   0  0  0  0  0  0  0  0  0  0  0  0
    0.9710    2.0340   -0.6140 C   0  0  0  0  0  0  0  0  0  0  0  0
   -1.5290    2.1850   -0.2720 C   0  0  0  0  0  0  0  0  0  0  0  0
    1.0150   -0.5370    0.5390 C   0  0  0  0  0  0  0  0  0  0  0  0
    2.1870    1.3390   -0.4880 C   0  0  0  0  0  0  0  0  0  0  0  0
   -2.0540    2.4870    1.0230 N   0  0  0  0  0  0  0  0  0  0  0  0
    2.2160    0.0580    0.0940 C   0  0  0  0  0  0  0  0  0  0  0  0
    1.0250   -1.7720    1.1310 O   0  0  0  0  0  0  0  0  0  0  0  0
   -3.2030    3.1010    1.2670 C   0  0  0  0  0  0  0  0  0  0  0  0
    3.4100   -0.5780    0.2110 O   0  0  0  0  0  0  0  0  0  0  0  0
    0.7960   -2.8470    0.2040 C   0  0  0  0  0  0  0  0  0  0  0  0
   -3.5800    3.3240    2.6540 C   0  0  0  0  0  0  0  0  0  0  0  0
   -3.9250    3.4670    0.3470 O   0  0  0  0  0  0  0  0  0  0  0  0
   -4.9380    4.0470    2.8850 C   0  0  0  0  0  0  0  0  0  0  0  0
   -5.2630    4.2440    4.3900 C   0  0  0  0  0  0  0  0  0  0  0  0
   -6.6190    4.9640    4.6170 C   0  0  0  0  0  0  0  0  0  0  0  0
   -6.9140    5.1280    6.0320 C   0  0  0  0  0  0  0  0  0  0  0  0
   -7.0500    6.3200    6.6380 C   0  0  0  0  0  0  0  0  0  0  0  0
   -7.3440    6.4850    8.0610 C   0  0  0  0  0  0  0  0  0  0  0  0
   -6.1840    7.2320    8.7700 C   0  0  0  0  0  0  0  0  0  0  0  0
   -8.6960    7.2230    8.2530 C   0  0  0  0  0  0  0  0  0  0  0  0
   -1.0600   -0.2590    0.7700 H   0  0  0  0  0  0  0  0  0  0  0  0
    0.9760    2.9650   -1.0380 H   0  0  0  0  0  0  0  0  0  0  0  0
   -1.4060    3.1190   -0.8280 H   0  0  0  0  0  0  0  0  0  0  0  0
   -2.2350    1.5570   -0.8220 H   0  0  0  0  0  0  0  0  0  0  0  0
    3.0530    1.7710   -0.8180 H   0  0  0  0  0  0  0  0  0  0  0  0
   -1.5230    2.2190    1.7900 H   0  0  0  0  0  0  0  0  0  0  0  0
    3.2240   -1.4210    0.6740 H   0  0  0  0  0  0  0  0  0  0  0  0
    0.8270   -3.7850    0.7580 H   0  0  0  0  0  0  0  0  0  0  0  0
   -0.1860   -2.7630   -0.2690 H   0  0  0  0  0  0  0  0  0  0  0  0
    1.5700   -2.8800   -0.5670 H   0  0  0  0  0  0  0  0  0  0  0  0
   -3.6180    2.3520    3.1530 H   0  0  0  0  0  0  0  0  0  0  0  0
   -2.7910    3.9150    3.1270 H   0  0  0  0  0  0  0  0  0  0  0  0
   -4.9070    5.0250    2.3970 H   0  0  0  0  0  0  0  0  0  0  0  0
   -5.7370    3.4590    2.4240 H   0  0  0  0  0  0  0  0  0  0  0  0
   -5.2890    3.2650    4.8770 H   0  0  0  0  0  0  0  0  0  0  0  0
   -4.4650    4.8340    4.8510 H   0  0  0  0  0  0  0  0  0  0  0  0
   -6.5970    5.9290    4.1000 H   0  0  0  0  0  0  0  0  0  0  0  0
   -7.4230    4.3720    4.1710 H   0  0  0  0  0  0  0  0  0  0  0  0
   -7.0210    4.2990    6.5720 H   0  0  0  0  0  0  0  0  0  0  0  0
   -6.9420    7.1470    6.0950 H   0  0  0  0  0  0  0  0  0  0  0  0
   -7.4410    5.5080    8.5480 H   0  0  0  0  0  0  0  0  0  0  0  0
   -6.3890    7.3200    9.8390 H   0  0  0  0  0  0  0  0  0  0  0  0
   -5.2480    6.6820    8.6500 H   0  0  0  0  0  0  0  0  0  0  0  0
   -6.0550    8.2360    8.3580 H   0  0  0  0  0  0  0  0  0  0  0  0
   -9.5040    6.6660    7.7730 H   0  0  0  0  0  0  0  0  0  0  0  0
   -8.9290    7.3110    9.3160 H   0  0  0  0  0  0  0  0  0  0  0  0
   -8.6580    8.2260    7.8220 H   0  0  0  0  0  0  0  0  0  0  0  0
  1  2  2  0  0  0  0
  1  3  1  0  0  0  0
  1  4  1  0  0  0  0
  2  5  1  0  0  0  0
  2 23  1  0  0  0  0
  3  6  2  0  0  0  0
  3 24  1  0  0  0  0
  4  7  1  0  0  0  0
  4 25  1  0  0  0  0
  4 26  1  0  0  0  0
  5  9  1  0  0  0  0
  5  8  2  0  0  0  0
  6  8  1  0  0  0  0
  6 27  1  0  0  0  0
  7 10  1  0  0  0  0
  7 28  1  0  0  0  0
  8 11  1  0  0  0  0
  9 12  1  0  0  0  0
 10 13  1  0  0  0  0
 10 14  2  0  0  0  0
 11 29  1  0  0  0  0
 12 30  1  0  0  0  0
 12 31  1  0  0  0  0
 12 32  1  0  0  0  0
 13 15  1  0  0  0  0
 13 34  1  0  0  0  0
 13 33  1  0  0  0  0
 15 16  1  0  0  0  0
 15 35  1  0  0  0  0
 15 36  1  0  0  0  0
 16 17  1  0  0  0  0
 16 38  1  0  0  0  0
 16 37  1  0  0  0  0
 17 18  1  0  0  0  0
 17 39  1  0  0  0  0
 17 40  1  0  0  0  0
 18 41  1  0  0  0  0
 18 19  2  0  0  0  0
 19 20  1  0  0  0  0
 19 42  1  0  0  0  0
 20 22  1  0  0  0  0
 20 43  1  0  0  0  0
 20 21  1  0  0  0  0
 21 44  1  0  0  0  0
 21 45  1  0  0  0  0
 21 46  1  0  0  0  0
 22 48  1  0  0  0  0
 22 47  1  0  0  0  0
 22 49  1  0  0  0  0
M  END
