
  ACD/Labs06062115003D

 69 71  0  0  0  0  0  0  0  0  2 V2000
   14.8028  -13.3747    2.9137 N   0  0  0  0  0  0  0  0  0  0  0  0
   13.5079  -13.0896    2.7026 C   0  0  0  0  0  0  0  0  0  0  0  0
   15.5137  -12.3948    2.3163 C   0  0  0  0  0  0  0  0  0  0  0  0
   15.2908  -14.5323    3.6265 C   0  0  0  0  0  0  0  0  0  0  0  0
   13.4898  -11.9042    1.9797 C   0  0  0  0  0  0  0  0  0  0  0  0
   12.2994  -13.7350    3.0435 C   0  0  0  0  0  0  0  0  0  0  0  0
   14.7408  -11.4513    1.7361 O   0  3  0  0  0  0  0  0  0  0  0  0
   16.8583  -12.3084    2.2556 C   0  0  0  0  0  0  0  0  0  0  0  0
   15.7050  -15.6686    2.6551 C   0  0  0  0  0  0  0  0  0  0  0  0
   12.2796  -11.3124    1.5780 C   0  0  0  0  0  0  0  0  0  0  0  0
   11.0762  -13.1524    2.6491 C   0  0  0  0  0  0  0  0  0  0  0  0
   17.5446  -11.3033    1.6412 C   0  0  0  0  0  0  0  0  0  0  0  0
   16.2442  -16.9152    3.3958 C   0  0  0  0  0  0  0  0  0  0  0  0
   11.0660  -11.9446    1.9193 C   0  0  0  0  0  0  0  0  0  0  0  0
   18.8845  -11.2955    1.5103 C   0  0  0  0  0  0  0  0  0  0  0  0
   16.7205  -18.2235    2.2453 S   0  0  0  0  0  0  0  0  0  0  0  0
   19.5652  -10.2944    0.8866 C   0  0  0  0  0  0  0  0  0  0  0  0
   17.2980  -19.5507    3.1192 O   0  0  0  0  0  0  0  0  0  0  0  0
   15.3855  -18.7127    1.3310 O   0  5  0  0  0  0  0  0  0  0  0  0
   17.9424  -17.6790    1.2123 O   0  0  0  0  0  0  0  0  0  0  0  0
   20.8168   -9.8653    1.1837 C   0  0  0  0  0  0  0  0  0  0  0  0
   21.5919  -10.3550    2.2213 C   0  0  0  0  0  0  0  0  0  0  0  0
   21.4817   -8.9676    0.3650 C   0  0  0  0  0  0  0  0  0  0  0  0
   22.9354  -10.4211    2.1017 N   0  0  0  0  0  0  0  0  0  0  0  0
   21.0523  -10.5744    3.3005 O   0  0  0  0  0  0  0  0  0  0  0  0
   22.8280   -9.0177    0.2418 N   0  0  0  0  0  0  0  0  0  0  0  0
   20.8371   -8.0623   -0.1548 O   0  0  0  0  0  0  0  0  0  0  0  0
   23.4890   -9.9863    0.9373 C   0  0  0  0  0  0  0  0  0  0  0  0
   23.7961  -10.8135    3.2064 C   0  0  0  0  0  0  0  0  0  0  0  0
   23.5968   -8.0261   -0.4976 C   0  0  0  0  0  0  0  0  0  0  0  0
   24.5230  -11.0503    0.0923 S   0  0  0  0  0  0  0  0  0  0  0  0
   23.7280  -12.3375    3.5023 C   0  0  0  0  0  0  0  0  0  0  0  0
   24.4002   -7.0868    0.4433 C   0  0  0  0  0  0  0  0  0  0  0  0
   24.6656  -12.7639    4.6620 C   0  0  0  0  0  0  0  0  0  0  0  0
   25.1961   -6.0007   -0.3267 C   0  0  0  0  0  0  0  0  0  0  0  0
   24.5970  -14.2784    4.9580 C   0  0  0  0  0  0  0  0  0  0  0  0
   25.9992   -5.0729    0.6117 C   0  0  0  0  0  0  0  0  0  0  0  0
   16.1379  -14.2489    4.2554 H   0  0  0  0  0  0  0  0  0  0  0  0
   14.5271  -14.9156    4.3065 H   0  0  0  0  0  0  0  0  0  0  0  0
   12.2996  -14.6126    3.5638 H   0  0  0  0  0  0  0  0  0  0  0  0
   17.3871  -13.0298    2.6871 H   0  0  0  0  0  0  0  0  0  0  0  0
   14.8340  -15.9544    2.0588 H   0  0  0  0  0  0  0  0  0  0  0  0
   16.4751  -15.2987    1.9736 H   0  0  0  0  0  0  0  0  0  0  0  0
   12.2815  -10.4394    1.0467 H   0  0  0  0  0  0  0  0  0  0  0  0
   10.1941  -13.6091    2.8891 H   0  0  0  0  0  0  0  0  0  0  0  0
   17.0332  -10.5286    1.2785 H   0  0  0  0  0  0  0  0  0  0  0  0
   17.1217  -16.6457    3.9879 H   0  0  0  0  0  0  0  0  0  0  0  0
   15.4788  -17.3111    4.0657 H   0  0  0  0  0  0  0  0  0  0  0  0
   10.1776  -11.5283    1.6347 H   0  0  0  0  0  0  0  0  0  0  0  0
   19.4079  -12.0651    1.8627 H   0  0  0  0  0  0  0  0  0  0  0  0
   19.1033   -9.8787    0.1058 H   0  0  0  0  0  0  0  0  0  0  0  0
   24.8410  -10.5547    3.0030 H   0  0  0  0  0  0  0  0  0  0  0  0
   23.5151  -10.2544    4.1028 H   0  0  0  0  0  0  0  0  0  0  0  0
   24.2846   -8.5241   -1.1851 H   0  0  0  0  0  0  0  0  0  0  0  0
   22.9549   -7.4009   -1.1247 H   0  0  0  0  0  0  0  0  0  0  0  0
   22.7024  -12.6121    3.7603 H   0  0  0  0  0  0  0  0  0  0  0  0
   24.0065  -12.8861    2.5989 H   0  0  0  0  0  0  0  0  0  0  0  0
   23.7038   -6.6009    1.1312 H   0  0  0  0  0  0  0  0  0  0  0  0
   25.1012   -7.6836    1.0334 H   0  0  0  0  0  0  0  0  0  0  0  0
   25.6975  -12.5054    4.4085 H   0  0  0  0  0  0  0  0  0  0  0  0
   24.3916  -12.2189    5.5696 H   0  0  0  0  0  0  0  0  0  0  0  0
   25.8921   -6.4830   -1.0185 H   0  0  0  0  0  0  0  0  0  0  0  0
   24.5038   -5.3890   -0.9115 H   0  0  0  0  0  0  0  0  0  0  0  0
   25.2738  -14.5256    5.7786 H   0  0  0  0  0  0  0  0  0  0  0  0
   23.5837  -14.5654    5.2446 H   0  0  0  0  0  0  0  0  0  0  0  0
   24.8933  -14.8525    4.0771 H   0  0  0  0  0  0  0  0  0  0  0  0
   26.5378   -4.3282    0.0218 H   0  0  0  0  0  0  0  0  0  0  0  0
   25.3281   -4.5534    1.2982 H   0  0  0  0  0  0  0  0  0  0  0  0
   26.7229   -5.6493    1.1893 H   0  0  0  0  0  0  0  0  0  0  0  0
  1  4  1  0  0  0  0
  1  2  1  0  0  0  0
  1  3  1  0  0  0  0
  2  6  2  0  0  0  0
  2  5  1  0  0  0  0
  3  8  1  0  0  0  0
  3  7  2  0  0  0  0
  4  9  1  0  0  0  0
  4 38  1  0  0  0  0
  4 39  1  0  0  0  0
  5  7  1  0  0  0  0
  5 10  2  0  0  0  0
  6 40  1  0  0  0  0
  6 11  1  0  0  0  0
  8 41  1  0  0  0  0
  8 12  1  0  0  0  0
  9 43  1  0  0  0  0
  9 13  1  0  0  0  0
  9 42  1  0  0  0  0
 10 14  1  0  0  0  0
 10 44  1  0  0  0  0
 11 45  1  0  0  0  0
 11 14  2  0  0  0  0
 12 15  2  0  0  0  0
 12 46  1  0  0  0  0
 13 16  1  0  0  0  0
 13 47  1  0  0  0  0
 13 48  1  0  0  0  0
 14 49  1  0  0  0  0
 15 50  1  0  0  0  0
 15 17  1  0  0  0  0
 16 20  2  0  0  0  0
 16 18  2  0  0  0  0
 16 19  1  0  0  0  0
 17 51  1  0  0  0  0
 17 21  2  0  0  0  0
 21 22  1  0  0  0  0
 21 23  1  0  0  0  0
 22 24  1  0  0  0  0
 22 25  2  0  0  0  0
 23 26  1  0  0  0  0
 23 27  2  0  0  0  0
 24 28  1  0  0  0  0
 24 29  1  0  0  0  0
 26 28  1  0  0  0  0
 26 30  1  0  0  0  0
 28 31  2  0  0  0  0
 29 52  1  0  0  0  0
 29 32  1  0  0  0  0
 29 53  1  0  0  0  0
 30 54  1  0  0  0  0
 30 33  1  0  0  0  0
 30 55  1  0  0  0  0
 32 57  1  0  0  0  0
 32 34  1  0  0  0  0
 32 56  1  0  0  0  0
 33 59  1  0  0  0  0
 33 35  1  0  0  0  0
 33 58  1  0  0  0  0
 34 60  1  0  0  0  0
 34 36  1  0  0  0  0
 34 61  1  0  0  0  0
 35 62  1  0  0  0  0
 35 37  1  0  0  0  0
 35 63  1  0  0  0  0
 36 66  1  0  0  0  0
 36 64  1  0  0  0  0
 36 65  1  0  0  0  0
 37 69  1  0  0  0  0
 37 67  1  0  0  0  0
 37 68  1  0  0  0  0
M  CHG  2   7   1  19  -1
M  END
