decoy-862
 OpenBabel06062114513D

 42 43  0  0  0  0  0  0  0  0999 V2000
   -0.1510    2.3960   -1.8680 S   0  0  0  0  0  0  0  0  0  0  0  0
    1.4600    1.8150   -1.5520 C   0  0  0  0  0  0  0  0  0  0  0  0
   -1.3160    1.3420   -1.2540 N   0  0  0  0  0  0  0  0  0  0  0  0
   -0.4560    2.7430   -3.3900 O   0  0  0  0  0  0  0  0  0  0  0  0
   -0.3260    3.7510   -1.0540 O   0  0  0  0  0  0  0  0  0  0  0  0
    2.4010    1.7000   -2.5950 C   0  0  0  0  0  0  0  0  0  0  0  0
    1.8300    1.4450   -0.2430 C   0  0  0  0  0  0  0  0  0  0  0  0
   -1.4980    0.1010   -1.6660 C   0  0  0  0  0  0  0  0  0  0  0  0
    3.6970    1.2190   -2.3330 C   0  0  0  0  0  0  0  0  0  0  0  0
    3.1250    0.9630    0.0210 C   0  0  0  0  0  0  0  0  0  0  0  0
   -2.4510   -0.5920   -1.0630 N   0  0  0  0  0  0  0  0  0  0  0  0
   -0.8120   -0.3820   -2.5580 O   0  0  0  0  0  0  0  0  0  0  0  0
    4.0710    0.8430   -1.0220 C   0  0  0  0  0  0  0  0  0  0  0  0
   -2.8410   -1.9520   -1.3190 C   0  0  0  0  0  0  0  0  0  0  0  0
    5.3450    0.3720   -0.7680 C   0  0  0  0  0  0  0  0  0  0  0  0
   -2.5680   -2.8000   -0.0340 C   0  0  0  0  0  0  0  0  0  0  0  0
   -4.3310   -1.9940   -1.7940 C   0  0  0  0  0  0  0  0  0  0  0  0
    5.5850   -1.0190   -0.4450 C   0  0  0  0  0  0  0  0  0  0  0  0
    6.2870    1.1440   -0.8820 O   0  0  0  0  0  0  0  0  0  0  0  0
   -3.5170   -4.0200    0.0770 C   0  0  0  0  0  0  0  0  0  0  0  0
   -5.3220   -2.2580   -0.6330 C   0  0  0  0  0  0  0  0  0  0  0  0
   -5.0150   -3.5940    0.1080 C   0  0  0  0  0  0  0  0  0  0  0  0
   -1.8860    1.6720   -0.5420 H   0  0  0  0  0  0  0  0  0  0  0  0
    2.1510    1.9620   -3.5510 H   0  0  0  0  0  0  0  0  0  0  0  0
    1.1580    1.5220    0.5250 H   0  0  0  0  0  0  0  0  0  0  0  0
    4.3640    1.1410   -3.1060 H   0  0  0  0  0  0  0  0  0  0  0  0
    3.3720    0.7050    0.9800 H   0  0  0  0  0  0  0  0  0  0  0  0
   -2.9430   -0.1310   -0.3640 H   0  0  0  0  0  0  0  0  0  0  0  0
   -2.2380   -2.3790   -2.1270 H   0  0  0  0  0  0  0  0  0  0  0  0
   -1.5300   -3.1450   -0.0370 H   0  0  0  0  0  0  0  0  0  0  0  0
   -2.7060   -2.1880    0.8640 H   0  0  0  0  0  0  0  0  0  0  0  0
   -4.6020   -1.0620   -2.2990 H   0  0  0  0  0  0  0  0  0  0  0  0
   -4.4510   -2.7980   -2.5260 H   0  0  0  0  0  0  0  0  0  0  0  0
    5.0740   -1.2840    0.4830 H   0  0  0  0  0  0  0  0  0  0  0  0
    6.6510   -1.2190   -0.3160 H   0  0  0  0  0  0  0  0  0  0  0  0
    5.2120   -1.6570   -1.2490 H   0  0  0  0  0  0  0  0  0  0  0  0
   -3.3430   -4.6730   -0.7830 H   0  0  0  0  0  0  0  0  0  0  0  0
   -3.2780   -4.5910    0.9780 H   0  0  0  0  0  0  0  0  0  0  0  0
   -5.2530   -1.4270    0.0750 H   0  0  0  0  0  0  0  0  0  0  0  0
   -6.3450   -2.2780   -1.0190 H   0  0  0  0  0  0  0  0  0  0  0  0
   -5.6100   -4.3970   -0.3370 H   0  0  0  0  0  0  0  0  0  0  0  0
   -5.3380   -3.4930    1.1480 H   0  0  0  0  0  0  0  0  0  0  0  0
  1  2  1  0  0  0  0
  1  3  1  0  0  0  0
  1  5  2  0  0  0  0
  1  4  2  0  0  0  0
  2  7  2  0  0  0  0
  2  6  1  0  0  0  0
  3 23  1  0  0  0  0
  3  8  1  0  0  0  0
  6  9  2  0  0  0  0
  6 24  1  0  0  0  0
  7 10  1  0  0  0  0
  7 25  1  0  0  0  0
  8 11  1  0  0  0  0
  8 12  2  0  0  0  0
  9 13  1  0  0  0  0
  9 26  1  0  0  0  0
 10 27  1  0  0  0  0
 10 13  2  0  0  0  0
 11 28  1  0  0  0  0
 11 14  1  0  0  0  0
 13 15  1  0  0  0  0
 14 16  1  0  0  0  0
 14 17  1  0  0  0  0
 14 29  1  0  0  0  0
 15 18  1  0  0  0  0
 15 19  2  0  0  0  0
 16 20  1  0  0  0  0
 16 31  1  0  0  0  0
 16 30  1  0  0  0  0
 17 21  1  0  0  0  0
 17 32  1  0  0  0  0
 17 33  1  0  0  0  0
 18 35  1  0  0  0  0
 18 34  1  0  0  0  0
 18 36  1  0  0  0  0
 20 22  1  0  0  0  0
 20 38  1  0  0  0  0
 20 37  1  0  0  0  0
 21 39  1  0  0  0  0
 21 22  1  0  0  0  0
 21 40  1  0  0  0  0
 22 42  1  0  0  0  0
 22 41  1  0  0  0  0
M  END
