decoy-968
 OpenBabel06062114513D

 64 68  0  0  0  0  0  0  0  0999 V2000
    5.2450    0.1380   -1.7020 C   0  0  0  0  0  0  0  0  0  0  0  0
    5.6900    1.4790   -1.1670 C   0  0  0  0  0  0  0  0  0  0  0  0
    3.8090    0.0270   -1.5960 O   0  0  0  0  0  0  0  0  0  0  0  0
    5.6120   -0.0040   -3.2100 C   0  0  0  0  0  0  0  0  0  0  0  0
    5.7930   -0.9880   -0.9870 O   0  0  0  0  0  0  0  0  0  0  0  0
    6.8520    1.7010   -0.3670 C   0  0  0  0  0  0  0  0  0  0  0  0
    4.9190    2.6160   -1.5290 C   0  0  0  0  0  0  0  0  0  0  0  0
    3.5470   -0.7950   -0.4640 C   0  0  0  0  0  0  0  0  0  0  0  0
    7.0200    0.0980   -3.4710 N   0  0  0  0  0  0  0  0  0  0  0  0
    4.7060   -1.7870   -0.5360 C   0  0  0  0  0  0  0  0  0  0  0  0
    7.1820    3.0040    0.0670 C   0  0  0  0  0  0  0  0  0  0  0  0
    7.9560    0.4950    0.0910 Cl  0  0  0  0  0  0  0  0  0  0  0  0
    5.2540    3.9090   -1.0940 C   0  0  0  0  0  0  0  0  0  0  0  0
    2.1430   -1.4350   -0.5440 C   0  0  0  0  0  0  0  0  0  0  0  0
    7.9520   -0.8360   -3.2110 C   0  0  0  0  0  0  0  0  0  0  0  0
    7.6610    1.1460   -4.0290 C   0  0  0  0  0  0  0  0  0  0  0  0
    6.3860    4.1060   -0.2890 C   0  0  0  0  0  0  0  0  0  0  0  0
    1.1540   -0.3880   -0.5000 O   0  0  0  0  0  0  0  0  0  0  0  0
    9.1780   -0.3270   -3.6150 C   0  0  0  0  0  0  0  0  0  0  0  0
    8.9790    0.8990   -4.1170 N   0  0  0  0  0  0  0  0  0  0  0  0
    6.7970    5.6620    0.2340 Cl  0  0  0  0  0  0  0  0  0  0  0  0
   -0.1310   -0.8510   -0.5750 C   0  0  0  0  0  0  0  0  0  0  0  0
   -0.8460   -1.1590    0.5950 C   0  0  0  0  0  0  0  0  0  0  0  0
   -0.7710   -0.9740   -1.8190 C   0  0  0  0  0  0  0  0  0  0  0  0
   -2.1760   -1.6080    0.5140 C   0  0  0  0  0  0  0  0  0  0  0  0
   -2.1020   -1.4220   -1.8910 C   0  0  0  0  0  0  0  0  0  0  0  0
   -2.8590   -1.7490   -0.7290 C   0  0  0  0  0  0  0  0  0  0  0  0
   -4.1710   -2.1940   -0.7990 N   0  0  0  0  0  0  0  0  0  0  0  0
   -4.7820   -2.9010    0.3190 C   0  0  0  0  0  0  0  0  0  0  0  0
   -4.9820   -2.0480   -2.0000 C   0  0  0  0  0  0  0  0  0  0  0  0
   -6.1180   -3.6210   -0.0100 C   0  0  0  0  0  0  0  0  0  0  0  0
   -6.4980   -1.8610   -1.7010 C   0  0  0  0  0  0  0  0  0  0  0  0
   -7.0440   -2.7110   -0.6540 N   0  0  0  0  0  0  0  0  0  0  0  0
   -8.3510   -2.6260   -0.3320 C   0  0  0  0  0  0  0  0  0  0  0  0
   -9.0180   -3.4390    0.6750 C   0  0  0  0  0  0  0  0  0  0  0  0
   -9.0760   -1.8290   -0.9180 O   0  0  0  0  0  0  0  0  0  0  0  0
    3.6240   -0.1960    0.4510 H   0  0  0  0  0  0  0  0  0  0  0  0
    5.2570   -0.9690   -3.5810 H   0  0  0  0  0  0  0  0  0  0  0  0
    5.0750    0.7610   -3.7800 H   0  0  0  0  0  0  0  0  0  0  0  0
    4.0920    2.5150   -2.1220 H   0  0  0  0  0  0  0  0  0  0  0  0
    4.5170   -2.5810   -1.2640 H   0  0  0  0  0  0  0  0  0  0  0  0
    4.9280   -2.2270    0.4380 H   0  0  0  0  0  0  0  0  0  0  0  0
    8.0150    3.1600    0.6400 H   0  0  0  0  0  0  0  0  0  0  0  0
    4.6710    4.7030   -1.3700 H   0  0  0  0  0  0  0  0  0  0  0  0
    2.0590   -2.0040   -1.4760 H   0  0  0  0  0  0  0  0  0  0  0  0
    2.0180   -2.1170    0.3030 H   0  0  0  0  0  0  0  0  0  0  0  0
    7.7980   -1.7560   -2.7930 H   0  0  0  0  0  0  0  0  0  0  0  0
    7.2210    2.0160   -4.3360 H   0  0  0  0  0  0  0  0  0  0  0  0
   10.0790   -0.8030   -3.5440 H   0  0  0  0  0  0  0  0  0  0  0  0
   -0.3970   -1.0560    1.5080 H   0  0  0  0  0  0  0  0  0  0  0  0
   -0.2620   -0.7500   -2.6780 H   0  0  0  0  0  0  0  0  0  0  0  0
   -2.6470   -1.8050    1.3980 H   0  0  0  0  0  0  0  0  0  0  0  0
   -2.4930   -1.5420   -2.8250 H   0  0  0  0  0  0  0  0  0  0  0  0
   -4.0940   -3.6680    0.6900 H   0  0  0  0  0  0  0  0  0  0  0  0
   -4.9740   -2.1880    1.1260 H   0  0  0  0  0  0  0  0  0  0  0  0
   -4.6870   -1.1790   -2.5920 H   0  0  0  0  0  0  0  0  0  0  0  0
   -4.8450   -2.9410   -2.6170 H   0  0  0  0  0  0  0  0  0  0  0  0
   -5.9150   -4.4460   -0.6980 H   0  0  0  0  0  0  0  0  0  0  0  0
   -6.4940   -4.0600    0.9160 H   0  0  0  0  0  0  0  0  0  0  0  0
   -6.6480   -0.8180   -1.4040 H   0  0  0  0  0  0  0  0  0  0  0  0
   -7.0470   -2.0280   -2.6330 H   0  0  0  0  0  0  0  0  0  0  0  0
   -8.8930   -4.4970    0.4400 H   0  0  0  0  0  0  0  0  0  0  0  0
  -10.0910   -3.2340    0.7290 H   0  0  0  0  0  0  0  0  0  0  0  0
   -8.5930   -3.2330    1.6590 H   0  0  0  0  0  0  0  0  0  0  0  0
  1  4  1  0  0  0  0
  1  3  1  0  0  0  0
  1  2  1  0  0  0  0
  1  5  1  0  0  0  0
  2  6  2  0  0  0  0
  2  7  1  0  0  0  0
  3  8  1  0  0  0  0
  4  9  1  0  0  0  0
  4 38  1  0  0  0  0
  4 39  1  0  0  0  0
  5 10  1  0  0  0  0
  6 11  1  0  0  0  0
  6 12  1  0  0  0  0
  7 13  2  0  0  0  0
  7 40  1  0  0  0  0
  8 37  1  0  0  0  0
  8 10  1  0  0  0  0
  8 14  1  0  0  0  0
  9 15  1  0  0  0  0
  9 16  1  0  0  0  0
 10 42  1  0  0  0  0
 10 41  1  0  0  0  0
 11 43  1  0  0  0  0
 11 17  2  0  0  0  0
 13 17  1  0  0  0  0
 13 44  1  0  0  0  0
 14 18  1  0  0  0  0
 14 46  1  0  0  0  0
 14 45  1  0  0  0  0
 15 47  1  0  0  0  0
 15 19  2  0  0  0  0
 16 20  2  0  0  0  0
 16 48  1  0  0  0  0
 17 21  1  0  0  0  0
 18 22  1  0  0  0  0
 19 49  1  0  0  0  0
 19 20  1  0  0  0  0
 22 23  2  0  0  0  0
 22 24  1  0  0  0  0
 23 50  1  0  0  0  0
 23 25  1  0  0  0  0
 24 26  2  0  0  0  0
 24 51  1  0  0  0  0
 25 52  1  0  0  0  0
 25 27  2  0  0  0  0
 26 27  1  0  0  0  0
 26 53  1  0  0  0  0
 27 28  1  0  0  0  0
 28 29  1  0  0  0  0
 28 30  1  0  0  0  0
 29 54  1  0  0  0  0
 29 55  1  0  0  0  0
 29 31  1  0  0  0  0
 30 32  1  0  0  0  0
 30 56  1  0  0  0  0
 30 57  1  0  0  0  0
 31 59  1  0  0  0  0
 31 33  1  0  0  0  0
 31 58  1  0  0  0  0
 32 60  1  0  0  0  0
 32 33  1  0  0  0  0
 32 61  1  0  0  0  0
 33 34  1  0  0  0  0
 34 35  1  0  0  0  0
 34 36  2  0  0  0  0
 35 63  1  0  0  0  0
 35 64  1  0  0  0  0
 35 62  1  0  0  0  0
M  END
