decoy-974
 OpenBabel06062114513D

 41 44  0  0  0  0  0  0  0  0999 V2000
    0.0840    1.4800    0.0810 N   0  0  0  0  0  0  0  0  0  0  0  0
    0.0640    0.1020    0.0420 C   0  0  0  0  0  0  0  0  0  0  0  0
    1.0750    2.2420    0.5250 C   0  0  0  0  0  0  0  0  0  0  0  0
   -0.8830    2.2950   -0.3180 C   0  0  0  0  0  0  0  0  0  0  0  0
   -1.0540   -0.6230    0.5160 C   0  0  0  0  0  0  0  0  0  0  0  0
    1.1620   -0.6270   -0.4720 C   0  0  0  0  0  0  0  0  0  0  0  0
    0.7230    3.5210    0.4030 C   0  0  0  0  0  0  0  0  0  0  0  0
    2.1290    1.8750    1.0250 O   0  0  0  0  0  0  0  0  0  0  0  0
   -0.4940    3.5540   -0.1250 C   0  0  0  0  0  0  0  0  0  0  0  0
   -1.9470    1.9860   -0.8370 O   0  0  0  0  0  0  0  0  0  0  0  0
   -1.0760   -2.0290    0.4770 C   0  0  0  0  0  0  0  0  0  0  0  0
    1.1410   -2.0330   -0.5140 C   0  0  0  0  0  0  0  0  0  0  0  0
    0.0200   -2.7540   -0.0430 C   0  0  0  0  0  0  0  0  0  0  0  0
    0.0080   -4.2410   -0.0930 C   0  0  0  0  0  0  0  0  0  0  0  0
    0.0030   -4.7590   -1.4880 C   0  0  0  0  0  0  0  0  0  0  0  0
    1.0990   -5.4860   -2.0040 C   0  0  0  0  0  0  0  0  0  0  0  0
   -1.1120   -4.5340   -2.3280 C   0  0  0  0  0  0  0  0  0  0  0  0
    1.0830   -5.9680   -3.3260 C   0  0  0  0  0  0  0  0  0  0  0  0
   -1.1270   -5.0180   -3.6490 C   0  0  0  0  0  0  0  0  0  0  0  0
   -0.0290   -5.7420   -4.1700 C   0  0  0  0  0  0  0  0  0  0  0  0
   -0.0430   -6.2150   -5.4650 N   0  0  0  0  0  0  0  0  0  0  0  0
   -1.0330   -6.8730   -6.0550 C   0  0  0  0  0  0  0  0  0  0  0  0
    0.9300   -6.0980   -6.3590 C   0  0  0  0  0  0  0  0  0  0  0  0
   -0.6750   -7.1630   -7.3050 C   0  0  0  0  0  0  0  0  0  0  0  0
   -2.0920   -7.2260   -5.5550 O   0  0  0  0  0  0  0  0  0  0  0  0
    0.5460   -6.6780   -7.4950 C   0  0  0  0  0  0  0  0  0  0  0  0
    1.9960   -5.5130   -6.2230 O   0  0  0  0  0  0  0  0  0  0  0  0
   -1.8580   -0.1280    0.9100 H   0  0  0  0  0  0  0  0  0  0  0  0
    1.9810   -0.1360   -0.8370 H   0  0  0  0  0  0  0  0  0  0  0  0
    1.2690    4.3110    0.6580 H   0  0  0  0  0  0  0  0  0  0  0  0
   -1.0160    4.3730   -0.3350 H   0  0  0  0  0  0  0  0  0  0  0  0
   -1.9020   -2.5200    0.8300 H   0  0  0  0  0  0  0  0  0  0  0  0
    1.9500   -2.5300   -0.8950 H   0  0  0  0  0  0  0  0  0  0  0  0
    0.8800   -4.6030    0.4600 H   0  0  0  0  0  0  0  0  0  0  0  0
   -0.8690   -4.6470    0.4190 H   0  0  0  0  0  0  0  0  0  0  0  0
    1.9190   -5.6700   -1.4220 H   0  0  0  0  0  0  0  0  0  0  0  0
   -1.9210   -4.0120   -1.9820 H   0  0  0  0  0  0  0  0  0  0  0  0
    1.8870   -6.5020   -3.6650 H   0  0  0  0  0  0  0  0  0  0  0  0
   -1.9420   -4.8240   -4.2350 H   0  0  0  0  0  0  0  0  0  0  0  0
   -1.2180   -7.6520   -7.9770 H   0  0  0  0  0  0  0  0  0  0  0  0
    1.0730   -6.7400   -8.3340 H   0  0  0  0  0  0  0  0  0  0  0  0
  1  3  1  0  0  0  0
  1  2  1  0  0  0  0
  1  4  1  0  0  0  0
  2  5  2  0  0  0  0
  2  6  1  0  0  0  0
  3  8  2  0  0  0  0
  3  7  1  0  0  0  0
  4  9  1  0  0  0  0
  4 10  2  0  0  0  0
  5 28  1  0  0  0  0
  5 11  1  0  0  0  0
  6 12  2  0  0  0  0
  6 29  1  0  0  0  0
  7 30  1  0  0  0  0
  7  9  2  0  0  0  0
  9 31  1  0  0  0  0
 11 32  1  0  0  0  0
 11 13  2  0  0  0  0
 12 13  1  0  0  0  0
 12 33  1  0  0  0  0
 13 14  1  0  0  0  0
 14 35  1  0  0  0  0
 14 34  1  0  0  0  0
 14 15  1  0  0  0  0
 15 16  2  0  0  0  0
 15 17  1  0  0  0  0
 16 36  1  0  0  0  0
 16 18  1  0  0  0  0
 17 37  1  0  0  0  0
 17 19  2  0  0  0  0
 18 20  2  0  0  0  0
 18 38  1  0  0  0  0
 19 20  1  0  0  0  0
 19 39  1  0  0  0  0
 20 21  1  0  0  0  0
 21 22  1  0  0  0  0
 21 23  1  0  0  0  0
 22 25  2  0  0  0  0
 22 24  1  0  0  0  0
 23 27  2  0  0  0  0
 23 26  1  0  0  0  0
 24 26  2  0  0  0  0
 24 40  1  0  0  0  0
 26 41  1  0  0  0  0
M  END
