decoy-431
 OpenBabel06062114513D

 73 76  0  0  0  0  0  0  0  0999 V2000
   -0.7800    0.9730   -0.3850 C   0  0  0  0  0  0  0  0  0  0  0  0
    0.5000    1.9120   -0.2600 C   0  0  0  0  0  0  0  0  0  0  0  0
   -0.8630    0.6530   -1.9380 C   0  0  0  0  0  0  0  0  0  0  0  0
   -2.0280    1.5040    0.2230 C   0  0  0  0  0  0  0  0  0  0  0  0
   -0.4820   -0.2360    0.3700 O   0  0  0  0  0  0  0  0  0  0  0  0
    1.4430    1.2180   -1.2970 C   0  0  0  0  0  0  0  0  0  0  0  0
    1.2510    1.9080    1.1260 C   0  0  0  0  0  0  0  0  0  0  0  0
    0.1520    3.4110   -0.6270 C   0  0  0  0  0  0  0  0  0  0  0  0
    0.5350    1.0210   -2.5300 C   0  0  0  0  0  0  0  0  0  0  0  0
   -2.0170    1.2450   -2.8000 C   0  0  0  0  0  0  0  0  0  0  0  0
   -2.7090    0.8920    1.3600 C   0  0  0  0  0  0  0  0  0  0  0  0
   -2.5460    2.5140   -0.2350 O   0  0  0  0  0  0  0  0  0  0  0  0
   -0.1170   -1.5460    0.2860 C   0  0  0  0  0  0  0  0  0  0  0  0
    2.8580    1.8790   -1.4330 C   0  0  0  0  0  0  0  0  0  0  0  0
    2.7120    2.4800    1.1000 C   0  0  0  0  0  0  0  0  0  0  0  0
   -3.8840    1.6030    1.7790 O   0  0  0  0  0  0  0  0  0  0  0  0
    0.0260   -2.3160    1.5340 C   0  0  0  0  0  0  0  0  0  0  0  0
    0.1980   -2.1470   -0.8850 O   0  0  0  0  0  0  0  0  0  0  0  0
    3.6390    1.8920   -0.0460 C   0  0  0  0  0  0  0  0  0  0  0  0
    3.7120    1.2190   -2.5620 C   0  0  0  0  0  0  0  0  0  0  0  0
    2.6550    3.9020    1.1250 O   0  0  0  0  0  0  0  0  0  0  0  0
   -4.7080    1.2640    2.8060 C   0  0  0  0  0  0  0  0  0  0  0  0
   -0.9660   -3.4970    1.6060 C   0  0  0  0  0  0  0  0  0  0  0  0
    5.0800    2.5850   -0.2170 C   0  0  0  0  0  0  0  0  0  0  0  0
    3.9350    0.1980    0.4610 Cl  0  0  0  0  0  0  0  0  0  0  0  0
    5.1280    1.8400   -2.6640 C   0  0  0  0  0  0  0  0  0  0  0  0
   -5.8690    2.1330    3.0790 C   0  0  0  0  0  0  0  0  0  0  0  0
   -4.4560    0.1580    3.5480 O   0  0  0  0  0  0  0  0  0  0  0  0
    5.7870    1.9010   -1.3520 C   0  0  0  0  0  0  0  0  0  0  0  0
    5.8510    2.4930    1.0510 C   0  0  0  0  0  0  0  0  0  0  0  0
    5.0770    4.1250   -0.5500 C   0  0  0  0  0  0  0  0  0  0  0  0
   -6.7610    1.6850    4.2590 C   0  0  0  0  0  0  0  0  0  0  0  0
    6.9860    1.3010   -1.1670 C   0  0  0  0  0  0  0  0  0  0  0  0
    7.0410    1.8760    1.1370 C   0  0  0  0  0  0  0  0  0  0  0  0
    7.6060    1.2940    0.0470 C   0  0  0  0  0  0  0  0  0  0  0  0
    8.6920    0.7410    0.1630 O   0  0  0  0  0  0  0  0  0  0  0  0
    1.6520    0.1990   -0.9590 H   0  0  0  0  0  0  0  0  0  0  0  0
    2.7010    2.9050   -1.7580 H   0  0  0  0  0  0  0  0  0  0  0  0
   -1.0040   -0.4200   -2.0580 H   0  0  0  0  0  0  0  0  0  0  0  0
    0.6600    2.4550    1.8650 H   0  0  0  0  0  0  0  0  0  0  0  0
    1.3260    0.8880    1.5060 H   0  0  0  0  0  0  0  0  0  0  0  0
   -0.4720    3.4820   -1.5130 H   0  0  0  0  0  0  0  0  0  0  0  0
    1.0230    4.0210   -0.8320 H   0  0  0  0  0  0  0  0  0  0  0  0
   -0.3850    3.8900    0.1940 H   0  0  0  0  0  0  0  0  0  0  0  0
    0.9100    0.2220   -3.1750 H   0  0  0  0  0  0  0  0  0  0  0  0
    0.5050    1.9450   -3.1150 H   0  0  0  0  0  0  0  0  0  0  0  0
   -2.9840    0.9160   -2.4140 H   0  0  0  0  0  0  0  0  0  0  0  0
   -1.9310    0.8910   -3.8300 H   0  0  0  0  0  0  0  0  0  0  0  0
   -1.9980    2.3340   -2.8160 H   0  0  0  0  0  0  0  0  0  0  0  0
   -3.0010   -0.1260    1.0890 H   0  0  0  0  0  0  0  0  0  0  0  0
   -2.0150    0.8500    2.2040 H   0  0  0  0  0  0  0  0  0  0  0  0
    3.1520    2.2290    2.0690 H   0  0  0  0  0  0  0  0  0  0  0  0
    1.0490   -2.6950    1.5990 H   0  0  0  0  0  0  0  0  0  0  0  0
   -0.1460   -1.6640    2.3940 H   0  0  0  0  0  0  0  0  0  0  0  0
    3.8040    0.1440   -2.3870 H   0  0  0  0  0  0  0  0  0  0  0  0
    3.2130    1.3510   -3.5250 H   0  0  0  0  0  0  0  0  0  0  0  0
    2.5830    4.1810    0.1930 H   0  0  0  0  0  0  0  0  0  0  0  0
   -1.9940   -3.1340    1.5480 H   0  0  0  0  0  0  0  0  0  0  0  0
   -0.8370   -4.0280    2.5500 H   0  0  0  0  0  0  0  0  0  0  0  0
   -0.7900   -4.1980    0.7870 H   0  0  0  0  0  0  0  0  0  0  0  0
    5.6980    1.2550   -3.3930 H   0  0  0  0  0  0  0  0  0  0  0  0
    5.0490    2.8490   -3.0730 H   0  0  0  0  0  0  0  0  0  0  0  0
   -5.5000    3.1410    3.2850 H   0  0  0  0  0  0  0  0  0  0  0  0
   -6.4830    2.1760    2.1760 H   0  0  0  0  0  0  0  0  0  0  0  0
    5.4850    2.9170    1.8730 H   0  0  0  0  0  0  0  0  0  0  0  0
    4.3910    4.3720   -1.3580 H   0  0  0  0  0  0  0  0  0  0  0  0
    6.0740    4.4550   -0.8550 H   0  0  0  0  0  0  0  0  0  0  0  0
    4.7990    4.7400    0.3070 H   0  0  0  0  0  0  0  0  0  0  0  0
   -7.1740    0.6930    4.0680 H   0  0  0  0  0  0  0  0  0  0  0  0
   -7.5870    2.3880    4.3840 H   0  0  0  0  0  0  0  0  0  0  0  0
   -6.1830    1.6600    5.1850 H   0  0  0  0  0  0  0  0  0  0  0  0
    7.4350    0.8440   -1.9290 H   0  0  0  0  0  0  0  0  0  0  0  0
    7.5120    1.8530    2.0140 H   0  0  0  0  0  0  0  0  0  0  0  0
  1  3  1  0  0  0  0
  1  2  1  0  0  0  0
  1  4  1  0  0  0  0
  1  5  1  0  0  0  0
  2  6  1  0  0  0  0
  2  7  1  0  0  0  0
  2  8  1  0  0  0  0
  3 39  1  0  0  0  0
  3  9  1  0  0  0  0
  3 10  1  0  0  0  0
  4 11  1  0  0  0  0
  4 12  2  0  0  0  0
  5 13  1  0  0  0  0
  6 14  1  0  0  0  0
  6 37  1  0  0  0  0
  6  9  1  0  0  0  0
  7 41  1  0  0  0  0
  7 40  1  0  0  0  0
  7 15  1  0  0  0  0
  8 44  1  0  0  0  0
  8 42  1  0  0  0  0
  8 43  1  0  0  0  0
  9 45  1  0  0  0  0
  9 46  1  0  0  0  0
 10 47  1  0  0  0  0
 10 48  1  0  0  0  0
 10 49  1  0  0  0  0
 11 16  1  0  0  0  0
 11 51  1  0  0  0  0
 11 50  1  0  0  0  0
 13 17  1  0  0  0  0
 13 18  2  0  0  0  0
 14 19  1  0  0  0  0
 14 20  1  0  0  0  0
 14 38  1  0  0  0  0
 15 19  1  0  0  0  0
 15 21  1  0  0  0  0
 15 52  1  0  0  0  0
 16 22  1  0  0  0  0
 17 53  1  0  0  0  0
 17 23  1  0  0  0  0
 17 54  1  0  0  0  0
 19 24  1  0  0  0  0
 19 25  1  0  0  0  0
 20 55  1  0  0  0  0
 20 26  1  0  0  0  0
 20 56  1  0  0  0  0
 21 57  1  0  0  0  0
 22 27  1  0  0  0  0
 22 28  2  0  0  0  0
 23 59  1  0  0  0  0
 23 58  1  0  0  0  0
 23 60  1  0  0  0  0
 24 31  1  0  0  0  0
 24 30  1  0  0  0  0
 24 29  1  0  0  0  0
 26 29  1  0  0  0  0
 26 61  1  0  0  0  0
 26 62  1  0  0  0  0
 27 63  1  0  0  0  0
 27 32  1  0  0  0  0
 27 64  1  0  0  0  0
 29 33  2  0  0  0  0
 30 34  2  0  0  0  0
 30 65  1  0  0  0  0
 31 68  1  0  0  0  0
 31 66  1  0  0  0  0
 31 67  1  0  0  0  0
 32 70  1  0  0  0  0
 32 71  1  0  0  0  0
 32 69  1  0  0  0  0
 33 35  1  0  0  0  0
 33 72  1  0  0  0  0
 34 73  1  0  0  0  0
 34 35  1  0  0  0  0
 35 36  2  0  0  0  0
M  END
