decoy-713
 OpenBabel06062114513D

 12 11  0  0  0  0  0  0  0  0999 V2000
   -0.0180    1.5380   -0.0020 C   0  0  0  0  0  0  0  0  0  0  0  0
    0.1480    0.0050    0.0010 C   0  0  0  0  0  0  0  0  0  0  0  0
    1.7110    2.3940    0.0260 Br  0  0  0  0  0  0  0  0  0  0  0  0
   -0.9540    2.1220   -1.5850 Br  0  0  0  0  0  0  0  0  0  0  0  0
   -1.0040    2.1230    1.5510 Br  0  0  0  0  0  0  0  0  0  0  0  0
   -1.1530   -0.6140   -0.0180 O   0  0  0  0  0  0  0  0  0  0  0  0
   -1.1710   -2.1710   -0.0240 P   0  0  0  0  0  0  0  0  0  0  0  0
   -0.5010   -2.7360    1.1200 O   0  0  0  0  0  0  0  0  0  0  0  0
   -2.9680   -2.6990    0.0790 Cl  0  0  0  0  0  0  0  0  0  0  0  0
   -0.4810   -2.9030   -1.6120 Cl  0  0  0  0  0  0  0  0  0  0  0  0
    0.7310   -0.2780   -0.8800 H   0  0  0  0  0  0  0  0  0  0  0  0
    0.7020   -0.2800    0.9000 H   0  0  0  0  0  0  0  0  0  0  0  0
  1  2  1  0  0  0  0
  1  3  1  0  0  0  0
  1  5  1  0  0  0  0
  1  4  1  0  0  0  0
  2 12  1  0  0  0  0
  2  6  1  0  0  0  0
  2 11  1  0  0  0  0
  6  7  1  0  0  0  0
  7  9  1  0  0  0  0
  7  8  2  0  0  0  0
  7 10  1  0  0  0  0
M  END
