decoy-602
 OpenBabel06062114513D

 54 56  0  0  0  0  0  0  0  0999 V2000
   -3.7500    0.8130    1.4710 N   0  0  0  0  0  0  0  0  0  0  0  0
   -2.4140    1.4390    1.4060 C   0  0  0  0  0  0  0  0  0  0  0  0
   -3.9360   -0.4040    0.8510 C   0  0  0  0  0  0  0  0  0  0  0  0
   -4.7800    1.3590    2.1620 C   0  0  0  0  0  0  0  0  0  0  0  0
   -1.3400    0.7220    2.2910 C   0  0  0  0  0  0  0  0  0  0  0  0
   -1.8760    1.7350   -0.0340 C   0  0  0  0  0  0  0  0  0  0  0  0
   -4.3970   -0.4680   -0.4850 C   0  0  0  0  0  0  0  0  0  0  0  0
   -3.8000   -1.6080    1.5810 C   0  0  0  0  0  0  0  0  0  0  0  0
   -6.1490    0.8380    2.2660 C   0  0  0  0  0  0  0  0  0  0  0  0
   -4.6130    2.3910    2.8040 O   0  0  0  0  0  0  0  0  0  0  0  0
   -0.5010   -0.3560    1.5490 C   0  0  0  0  0  0  0  0  0  0  0  0
   -1.0350    0.5850   -0.6540 C   0  0  0  0  0  0  0  0  0  0  0  0
   -4.6470   -1.7090   -1.0980 C   0  0  0  0  0  0  0  0  0  0  0  0
   -4.0500   -2.8500    0.9680 C   0  0  0  0  0  0  0  0  0  0  0  0
   -6.4590    0.2640    3.6680 C   0  0  0  0  0  0  0  0  0  0  0  0
    0.0650    0.1060    0.2410 *   0  0  0  0  0  0  0  0  0  0  0  0
   -4.4670   -2.9010   -0.3740 C   0  0  0  0  0  0  0  0  0  0  0  0
    1.2320    1.0490    0.3280 C   0  0  0  0  0  0  0  0  0  0  0  0
    2.5370    0.3780    0.8410 C   0  0  0  0  0  0  0  0  0  0  0  0
    3.7280    1.2630    0.7120 C   0  0  0  0  0  0  0  0  0  0  0  0
    3.8520    2.4180    1.5220 C   0  0  0  0  0  0  0  0  0  0  0  0
    4.7610    0.9700   -0.2100 C   0  0  0  0  0  0  0  0  0  0  0  0
    4.9740    3.2590    1.4090 C   0  0  0  0  0  0  0  0  0  0  0  0
    5.8840    1.8120   -0.3240 C   0  0  0  0  0  0  0  0  0  0  0  0
    5.9900    2.9570    0.4850 C   0  0  0  0  0  0  0  0  0  0  0  0
   -2.4860    2.4400    1.8440 H   0  0  0  0  0  0  0  0  0  0  0  0
   -0.6430    1.4710    2.6790 H   0  0  0  0  0  0  0  0  0  0  0  0
   -1.8220    0.2690    3.1600 H   0  0  0  0  0  0  0  0  0  0  0  0
   -2.7080    1.9800   -0.6970 H   0  0  0  0  0  0  0  0  0  0  0  0
   -1.2360    2.6220    0.0010 H   0  0  0  0  0  0  0  0  0  0  0  0
   -4.5590    0.3910   -1.0160 H   0  0  0  0  0  0  0  0  0  0  0  0
   -3.5170   -1.5850    2.5630 H   0  0  0  0  0  0  0  0  0  0  0  0
   -6.8560    1.6450    2.0510 H   0  0  0  0  0  0  0  0  0  0  0  0
   -6.3530    0.0560    1.5340 H   0  0  0  0  0  0  0  0  0  0  0  0
    0.2920   -0.7030    2.2130 H   0  0  0  0  0  0  0  0  0  0  0  0
   -1.1240   -1.2290    1.3570 H   0  0  0  0  0  0  0  0  0  0  0  0
   -1.6830   -0.2610   -0.8860 H   0  0  0  0  0  0  0  0  0  0  0  0
   -0.6280    0.9190   -1.6120 H   0  0  0  0  0  0  0  0  0  0  0  0
   -4.9700   -1.7450   -2.0680 H   0  0  0  0  0  0  0  0  0  0  0  0
   -3.9360   -3.7150    1.5010 H   0  0  0  0  0  0  0  0  0  0  0  0
   -5.7760   -0.5550    3.9040 H   0  0  0  0  0  0  0  0  0  0  0  0
   -7.4810   -0.1180    3.6920 H   0  0  0  0  0  0  0  0  0  0  0  0
   -6.3620    1.0380    4.4330 H   0  0  0  0  0  0  0  0  0  0  0  0
    0.4350   -0.7330   -0.2120 H   0  0  0  0  0  0  0  0  0  0  0  0
   -4.6530   -3.8030   -0.8180 H   0  0  0  0  0  0  0  0  0  0  0  0
    1.4510    1.4350   -0.6720 H   0  0  0  0  0  0  0  0  0  0  0  0
    0.9880    1.9060    0.9600 H   0  0  0  0  0  0  0  0  0  0  0  0
    2.4340    0.1040    1.8920 H   0  0  0  0  0  0  0  0  0  0  0  0
    2.6860   -0.5480    0.2790 H   0  0  0  0  0  0  0  0  0  0  0  0
    3.1260    2.6510    2.2040 H   0  0  0  0  0  0  0  0  0  0  0  0
    4.7030    0.1440   -0.8100 H   0  0  0  0  0  0  0  0  0  0  0  0
    5.0520    4.0910    1.9990 H   0  0  0  0  0  0  0  0  0  0  0  0
    6.6230    1.5910   -0.9950 H   0  0  0  0  0  0  0  0  0  0  0  0
    6.8050    3.5680    0.4030 H   0  0  0  0  0  0  0  0  0  0  0  0
  1  4  1  0  0  0  0
  1  2  1  0  0  0  0
  1  3  1  0  0  0  0
  2 26  1  0  0  0  0
  2  5  1  0  0  0  0
  2  6  1  0  0  0  0
  3  8  2  0  0  0  0
  3  7  1  0  0  0  0
  4  9  1  0  0  0  0
  4 10  2  0  0  0  0
  5 27  1  0  0  0  0
  5 28  1  0  0  0  0
  5 11  1  0  0  0  0
  6 30  1  0  0  0  0
  6 12  1  0  0  0  0
  6 29  1  0  0  0  0
  7 13  2  0  0  0  0
  7 31  1  0  0  0  0
  8 32  1  0  0  0  0
  8 14  1  0  0  0  0
  9 15  1  0  0  0  0
  9 33  1  0  0  0  0
  9 34  1  0  0  0  0
 11 35  1  0  0  0  0
 11 16  1  0  0  0  0
 11 36  1  0  0  0  0
 12 16  1  0  0  0  0
 12 37  1  0  0  0  0
 12 38  1  0  0  0  0
 13 17  1  0  0  0  0
 13 39  1  0  0  0  0
 14 40  1  0  0  0  0
 14 17  2  0  0  0  0
 15 42  1  0  0  0  0
 15 41  1  0  0  0  0
 15 43  1  0  0  0  0
 16 18  1  0  0  0  0
 16 44  1  0  0  0  0
 17 45  1  0  0  0  0
 18 19  1  0  0  0  0
 18 47  1  0  0  0  0
 18 46  1  0  0  0  0
 19 48  1  0  0  0  0
 19 20  1  0  0  0  0
 19 49  1  0  0  0  0
 20 21  2  0  0  0  0
 20 22  1  0  0  0  0
 21 50  1  0  0  0  0
 21 23  1  0  0  0  0
 22 24  2  0  0  0  0
 22 51  1  0  0  0  0
 23 52  1  0  0  0  0
 23 25  2  0  0  0  0
 24 25  1  0  0  0  0
 24 53  1  0  0  0  0
 25 54  1  0  0  0  0
M  END
