decoy-792
 OpenBabel06062114513D

 31 32  0  0  0  0  0  0  0  0999 V2000
    0.0040    1.4270   -0.0130 C   0  0  0  0  0  0  0  0  0  0  0  0
    0.0100   -0.0010   -0.0120 C   0  0  0  0  0  0  0  0  0  0  0  0
    1.2210    2.1560   -0.1120 C   0  0  0  0  0  0  0  0  0  0  0  0
   -1.2180    2.1500    0.0850 C   0  0  0  0  0  0  0  0  0  0  0  0
    1.2300   -0.7220   -0.1200 C   0  0  0  0  0  0  0  0  0  0  0  0
   -1.2060   -0.7320    0.0960 C   0  0  0  0  0  0  0  0  0  0  0  0
    2.4280    1.4300   -0.0210 C   0  0  0  0  0  0  0  0  0  0  0  0
   -2.4130    1.4090   -0.0210 C   0  0  0  0  0  0  0  0  0  0  0  0
    2.4290    0.0160   -0.0200 C   0  0  0  0  0  0  0  0  0  0  0  0
   -2.4000    0.0030   -0.0190 C   0  0  0  0  0  0  0  0  0  0  0  0
    3.9270    2.3310    0.0500 S   0  0  0  0  0  0  0  0  0  0  0  0
   -3.9440    2.2360   -0.1200 S   0  0  0  0  0  0  0  0  0  0  0  0
    3.5840   -0.6790    0.0570 N   0  0  0  0  0  0  0  0  0  0  0  0
    4.7360    1.9740    1.4900 O   0  0  0  0  0  0  0  0  0  0  0  0
    4.9250    1.8800   -1.2380 O   0  0  0  0  0  0  0  0  0  0  0  0
    3.6820    4.0020   -0.0290 O   0  0  0  0  0  0  0  0  0  0  0  0
   -4.7940    1.7680   -1.5050 O   0  0  0  0  0  0  0  0  0  0  0  0
   -4.8860    1.7570    1.1990 O   0  0  0  0  0  0  0  0  0  0  0  0
   -3.8320    3.9210   -0.0510 O   0  0  0  0  0  0  0  0  0  0  0  0
    1.2280    2.9150    0.5770 H   0  0  0  0  0  0  0  0  0  0  0  0
   -1.2320    2.9170   -0.5940 H   0  0  0  0  0  0  0  0  0  0  0  0
    1.2350   -1.1880   -1.0320 H   0  0  0  0  0  0  0  0  0  0  0  0
   -1.2190   -1.1890    1.0120 H   0  0  0  0  0  0  0  0  0  0  0  0
   -3.2870   -0.5070   -0.0850 H   0  0  0  0  0  0  0  0  0  0  0  0
    3.5680   -1.6490    0.0480 H   0  0  0  0  0  0  0  0  0  0  0  0
    4.4340   -0.2160    0.1210 H   0  0  0  0  0  0  0  0  0  0  0  0
   -5.6130    1.2370   -1.4220 H   0  0  0  0  0  0  0  0  0  0  0  0
    1.2230    2.6410   -1.0140 H   0  0  0  0  0  0  0  0  0  0  0  0
   -1.2330    2.6230    0.9930 H   0  0  0  0  0  0  0  0  0  0  0  0
    1.2450   -1.4960    0.5530 H   0  0  0  0  0  0  0  0  0  0  0  0
   -1.2240   -1.5120   -0.5690 H   0  0  0  0  0  0  0  0  0  0  0  0
  1  2  2  0  0  0  0
  1  4  1  0  0  0  0
  1  3  1  0  0  0  0
  2  6  1  0  0  0  0
  2  5  1  0  0  0  0
  3  7  1  0  0  0  0
  3 20  1  0  0  0  0
  3 28  1  0  0  0  0
  4 29  1  0  0  0  0
  4  8  1  0  0  0  0
  4 21  1  0  0  0  0
  5  9  1  0  0  0  0
  5 30  1  0  0  0  0
  5 22  1  0  0  0  0
  6 23  1  0  0  0  0
  6 10  1  0  0  0  0
  6 31  1  0  0  0  0
  7  9  2  0  0  0  0
  7 11  1  0  0  0  0
  8 10  2  0  0  0  0
  8 12  1  0  0  0  0
  9 13  1  0  0  0  0
 10 24  1  0  0  0  0
 11 14  2  0  0  0  0
 11 15  2  0  0  0  0
 11 16  1  0  0  0  0
 12 19  2  0  0  0  0
 12 18  2  0  0  0  0
 12 17  1  0  0  0  0
 13 26  1  0  0  0  0
 13 25  1  0  0  0  0
 17 27  1  0  0  0  0
M  END
