decoy-459
 OpenBabel06062114513D

 55 56  0  0  0  0  0  0  0  0999 V2000
    3.2830    2.2600   -0.1650 N   0  0  0  0  0  0  0  0  0  0  0  0
    4.3960    1.3930   -0.4840 C   0  0  0  0  0  0  0  0  0  0  0  0
    2.7490    2.3760    1.0660 C   0  0  0  0  0  0  0  0  0  0  0  0
    2.7640    2.9120   -1.3340 C   0  0  0  0  0  0  0  0  0  0  0  0
    4.7110    1.6440   -1.9780 C   0  0  0  0  0  0  0  0  0  0  0  0
    5.6010    1.6130    0.3520 C   0  0  0  0  0  0  0  0  0  0  0  0
    1.6530    3.2740    1.4510 C   0  0  0  0  0  0  0  0  0  0  0  0
    3.1670    1.6490    1.9610 O   0  0  0  0  0  0  0  0  0  0  0  0
    3.4030    2.2050   -2.5400 C   0  0  0  0  0  0  0  0  0  0  0  0
    6.1280    0.6040    1.0800 O   0  0  0  0  0  0  0  0  0  0  0  0
    6.1360    2.8480    0.4810 O   0  0  0  0  0  0  0  0  0  0  0  0
    0.4580    2.5320    1.9390 C   0  0  0  0  0  0  0  0  0  0  0  0
    2.1110    4.2570    2.5620 C   0  0  0  0  0  0  0  0  0  0  0  0
   -0.4330    1.8620    0.9500 C   0  0  0  0  0  0  0  0  0  0  0  0
    0.0650    0.4410    0.5480 C   0  0  0  0  0  0  0  0  0  0  0  0
   -1.7810    1.8050    1.5580 C   0  0  0  0  0  0  0  0  0  0  0  0
   -0.7970   -0.2540   -0.5440 C   0  0  0  0  0  0  0  0  0  0  0  0
   -2.8200    2.4270    0.9410 O   0  0  0  0  0  0  0  0  0  0  0  0
   -1.9710    1.1270    2.7160 O   0  0  0  0  0  0  0  0  0  0  0  0
   -0.2370   -1.5680   -0.9630 C   0  0  0  0  0  0  0  0  0  0  0  0
   -4.1770    2.4560    1.3940 C   0  0  0  0  0  0  0  0  0  0  0  0
   -0.8840   -2.7810   -0.6270 C   0  0  0  0  0  0  0  0  0  0  0  0
    0.9600   -1.6260   -1.7180 C   0  0  0  0  0  0  0  0  0  0  0  0
   -5.0370    3.2620    0.4060 C   0  0  0  0  0  0  0  0  0  0  0  0
   -0.3450   -4.0180   -1.0280 C   0  0  0  0  0  0  0  0  0  0  0  0
    1.4990   -2.8630   -2.1190 C   0  0  0  0  0  0  0  0  0  0  0  0
    0.8470   -4.0590   -1.7730 C   0  0  0  0  0  0  0  0  0  0  0  0
   -0.4940    2.4780    0.0480 H   0  0  0  0  0  0  0  0  0  0  0  0
    4.0620    0.3550   -0.3660 H   0  0  0  0  0  0  0  0  0  0  0  0
    1.6770    2.8140   -1.4130 H   0  0  0  0  0  0  0  0  0  0  0  0
    3.0340    3.9720   -1.3170 H   0  0  0  0  0  0  0  0  0  0  0  0
    5.5010    2.3910   -2.1120 H   0  0  0  0  0  0  0  0  0  0  0  0
    5.0060    0.7240   -2.4910 H   0  0  0  0  0  0  0  0  0  0  0  0
    1.3420    3.9100    0.6200 H   0  0  0  0  0  0  0  0  0  0  0  0
    2.7630    1.3850   -2.8800 H   0  0  0  0  0  0  0  0  0  0  0  0
    3.5750    2.8930   -3.3710 H   0  0  0  0  0  0  0  0  0  0  0  0
    0.7630    1.8350    2.6230 H   0  0  0  0  0  0  0  0  0  0  0  0
   -0.1190    3.2150    2.4350 H   0  0  0  0  0  0  0  0  0  0  0  0
    2.3670    3.7210    3.4780 H   0  0  0  0  0  0  0  0  0  0  0  0
    1.3100    4.9630    2.7900 H   0  0  0  0  0  0  0  0  0  0  0  0
    2.9840    4.8260    2.2320 H   0  0  0  0  0  0  0  0  0  0  0  0
    1.0800    0.5250    0.1630 H   0  0  0  0  0  0  0  0  0  0  0  0
    0.1060   -0.1970    1.4360 H   0  0  0  0  0  0  0  0  0  0  0  0
   -1.8130   -0.3810   -0.1590 H   0  0  0  0  0  0  0  0  0  0  0  0
   -0.8670    0.3930   -1.4230 H   0  0  0  0  0  0  0  0  0  0  0  0
   -4.5630    1.4360    1.4630 H   0  0  0  0  0  0  0  0  0  0  0  0
   -4.2260    2.9220    2.3820 H   0  0  0  0  0  0  0  0  0  0  0  0
   -1.7500   -2.7740   -0.0820 H   0  0  0  0  0  0  0  0  0  0  0  0
    1.4450   -0.7670   -1.9850 H   0  0  0  0  0  0  0  0  0  0  0  0
   -4.6640    4.2850    0.3320 H   0  0  0  0  0  0  0  0  0  0  0  0
   -6.0730    3.2880    0.7490 H   0  0  0  0  0  0  0  0  0  0  0  0
   -5.0040    2.8000   -0.5830 H   0  0  0  0  0  0  0  0  0  0  0  0
   -0.8200   -4.8880   -0.7770 H   0  0  0  0  0  0  0  0  0  0  0  0
    2.3640   -2.8910   -2.6630 H   0  0  0  0  0  0  0  0  0  0  0  0
    1.2380   -4.9580   -2.0640 H   0  0  0  0  0  0  0  0  0  0  0  0
  1  3  1  0  0  0  0
  1  2  1  0  0  0  0
  1  4  1  0  0  0  0
  2 29  1  0  0  0  0
  2  6  1  0  0  0  0
  2  5  1  0  0  0  0
  3  7  1  0  0  0  0
  3  8  2  0  0  0  0
  4 31  1  0  0  0  0
  4  9  1  0  0  0  0
  4 30  1  0  0  0  0
  5  9  1  0  0  0  0
  5 32  1  0  0  0  0
  5 33  1  0  0  0  0
  6 11  2  0  0  0  0
  6 10  1  0  0  0  0
  7 34  1  0  0  0  0
  7 12  1  0  0  0  0
  7 13  1  0  0  0  0
  9 35  1  0  0  0  0
  9 36  1  0  0  0  0
 12 38  1  0  0  0  0
 12 37  1  0  0  0  0
 12 14  1  0  0  0  0
 13 40  1  0  0  0  0
 13 39  1  0  0  0  0
 13 41  1  0  0  0  0
 14 28  1  0  0  0  0
 14 16  1  0  0  0  0
 14 15  1  0  0  0  0
 15 43  1  0  0  0  0
 15 17  1  0  0  0  0
 15 42  1  0  0  0  0
 16 19  2  0  0  0  0
 16 18  1  0  0  0  0
 17 44  1  0  0  0  0
 17 20  1  0  0  0  0
 17 45  1  0  0  0  0
 18 21  1  0  0  0  0
 20 22  2  0  0  0  0
 20 23  1  0  0  0  0
 21 46  1  0  0  0  0
 21 47  1  0  0  0  0
 21 24  1  0  0  0  0
 22 48  1  0  0  0  0
 22 25  1  0  0  0  0
 23 26  2  0  0  0  0
 23 49  1  0  0  0  0
 24 51  1  0  0  0  0
 24 50  1  0  0  0  0
 24 52  1  0  0  0  0
 25 53  1  0  0  0  0
 25 27  2  0  0  0  0
 26 27  1  0  0  0  0
 26 54  1  0  0  0  0
 27 55  1  0  0  0  0
M  END
