decoy-426
 OpenBabel06062114513D

 35 35  0  0  0  0  0  0  0  0999 V2000
    0.9910   -0.7590    0.6890 C   0  0  0  0  0  0  0  0  0  0  0  0
    1.2050    0.3890   -0.2310 C   0  0  0  0  0  0  0  0  0  0  0  0
    0.6230   -0.2500    2.0400 C   0  0  0  0  0  0  0  0  0  0  0  0
   -0.2010   -1.6840    0.1620 C   0  0  0  0  0  0  0  0  0  0  0  0
    2.3510   -1.5510    0.8430 C   0  0  0  0  0  0  0  0  0  0  0  0
    1.0480    1.6500    0.1510 N   0  0  0  0  0  0  0  0  0  0  0  0
    1.5690    0.2200   -1.3860 O   0  0  0  0  0  0  0  0  0  0  0  0
    0.4990    1.0440    2.3080 N   0  0  0  0  0  0  0  0  0  0  0  0
    0.4220   -1.0170    2.9720 O   0  0  0  0  0  0  0  0  0  0  0  0
   -1.5510   -0.8980   -0.0420 C   0  0  0  0  0  0  0  0  0  0  0  0
    0.1220   -2.5300   -1.1120 C   0  0  0  0  0  0  0  0  0  0  0  0
    3.4510   -0.8130    1.4600 C   0  0  0  0  0  0  0  0  0  0  0  0
    0.7010    1.9730    1.3860 C   0  0  0  0  0  0  0  0  0  0  0  0
   -2.8360   -1.7700   -0.1240 C   0  0  0  0  0  0  0  0  0  0  0  0
    4.0350   -1.1600    2.6140 C   0  0  0  0  0  0  0  0  0  0  0  0
    0.5740    3.1490    1.6850 O   0  0  0  0  0  0  0  0  0  0  0  0
   -4.1310   -0.9260   -0.1540 C   0  0  0  0  0  0  0  0  0  0  0  0
   -0.3900   -2.4290    0.9430 H   0  0  0  0  0  0  0  0  0  0  0  0
    2.1560   -2.4740    1.3980 H   0  0  0  0  0  0  0  0  0  0  0  0
    2.7180   -1.8560   -0.1390 H   0  0  0  0  0  0  0  0  0  0  0  0
    1.2020    2.3590   -0.4940 H   0  0  0  0  0  0  0  0  0  0  0  0
    0.2540    1.3180    3.2060 H   0  0  0  0  0  0  0  0  0  0  0  0
   -1.6940   -0.2090    0.7930 H   0  0  0  0  0  0  0  0  0  0  0  0
   -1.4810   -0.2910   -0.9490 H   0  0  0  0  0  0  0  0  0  0  0  0
    0.2670   -1.8940   -1.9860 H   0  0  0  0  0  0  0  0  0  0  0  0
   -0.6870   -3.2250   -1.3330 H   0  0  0  0  0  0  0  0  0  0  0  0
    1.0140   -3.1390   -0.9700 H   0  0  0  0  0  0  0  0  0  0  0  0
    3.7860    0.0000    0.9950 H   0  0  0  0  0  0  0  0  0  0  0  0
   -2.8170   -2.3810   -1.0290 H   0  0  0  0  0  0  0  0  0  0  0  0
   -2.8790   -2.4390    0.7390 H   0  0  0  0  0  0  0  0  0  0  0  0
    4.7780   -0.6140    2.9810 H   0  0  0  0  0  0  0  0  0  0  0  0
    3.7370   -1.9580    3.1230 H   0  0  0  0  0  0  0  0  0  0  0  0
   -4.2210   -0.3330    0.7580 H   0  0  0  0  0  0  0  0  0  0  0  0
   -4.9990   -1.5840   -0.2270 H   0  0  0  0  0  0  0  0  0  0  0  0
   -4.1290   -0.2560   -1.0150 H   0  0  0  0  0  0  0  0  0  0  0  0
  1  5  1  0  0  0  0
  1  3  1  0  0  0  0
  1  2  1  0  0  0  0
  1  4  1  0  0  0  0
  2  6  1  0  0  0  0
  2  7  2  0  0  0  0
  3  8  1  0  0  0  0
  3  9  2  0  0  0  0
  4 18  1  0  0  0  0
  4 10  1  0  0  0  0
  4 11  1  0  0  0  0
  5 19  1  0  0  0  0
  5 12  1  0  0  0  0
  5 20  1  0  0  0  0
  6 13  1  0  0  0  0
  6 21  1  0  0  0  0
  8 22  1  0  0  0  0
  8 13  1  0  0  0  0
 10 23  1  0  0  0  0
 10 14  1  0  0  0  0
 10 24  1  0  0  0  0
 11 27  1  0  0  0  0
 11 25  1  0  0  0  0
 11 26  1  0  0  0  0
 12 15  2  0  0  0  0
 12 28  1  0  0  0  0
 13 16  2  0  0  0  0
 14 30  1  0  0  0  0
 14 17  1  0  0  0  0
 14 29  1  0  0  0  0
 15 31  1  0  0  0  0
 15 32  1  0  0  0  0
 17 33  1  0  0  0  0
 17 34  1  0  0  0  0
 17 35  1  0  0  0  0
M  END
