decoy-699
 OpenBabel06062114513D

 36 38  0  0  0  0  0  0  0  0999 V2000
    2.3950   -1.1520    1.1960 C   0  0  0  0  0  0  0  0  0  0  0  0
    3.3210   -0.0840    1.0430 C   0  0  0  0  0  0  0  0  0  0  0  0
    1.0090   -0.9380    1.0560 C   0  0  0  0  0  0  0  0  0  0  0  0
    2.9150   -2.4290    1.5310 C   0  0  0  0  0  0  0  0  0  0  0  0
    2.7240    1.4750    0.5660 S   0  0  0  0  0  0  0  0  0  0  0  0
    4.7040   -0.2830    1.2380 C   0  0  0  0  0  0  0  0  0  0  0  0
    0.4770    0.1450    0.4320 C   0  0  0  0  0  0  0  0  0  0  0  0
    0.1850   -1.7900    1.6750 O   0  0  0  0  0  0  0  0  0  0  0  0
    4.2950   -2.6310    1.7180 C   0  0  0  0  0  0  0  0  0  0  0  0
    1.2600    1.0720   -0.1750 N   0  0  0  0  0  0  0  0  0  0  0  0
    2.4840    2.4040    1.8340 O   0  0  0  0  0  0  0  0  0  0  0  0
    3.7600    2.1250   -0.4530 O   0  0  0  0  0  0  0  0  0  0  0  0
    5.1880   -1.5570    1.5770 C   0  0  0  0  0  0  0  0  0  0  0  0
   -0.8630    0.3800    0.4830 C   0  0  0  0  0  0  0  0  0  0  0  0
    0.9730    1.6520   -1.4600 C   0  0  0  0  0  0  0  0  0  0  0  0
   -1.6720   -0.3890   -0.2350 N   0  0  0  0  0  0  0  0  0  0  0  0
   -1.2410    1.3360    1.1460 O   0  0  0  0  0  0  0  0  0  0  0  0
   -3.0300   -0.3670   -0.3780 C   0  0  0  0  0  0  0  0  0  0  0  0
   -3.9610    0.3810    0.3840 C   0  0  0  0  0  0  0  0  0  0  0  0
   -3.5110   -1.1820   -1.3550 N   0  0  0  0  0  0  0  0  0  0  0  0
   -5.3350    0.2710    0.1030 C   0  0  0  0  0  0  0  0  0  0  0  0
   -4.8290   -1.3130   -1.6530 C   0  0  0  0  0  0  0  0  0  0  0  0
   -5.7790   -0.5790   -0.9240 C   0  0  0  0  0  0  0  0  0  0  0  0
    2.2960   -3.2350    1.6450 H   0  0  0  0  0  0  0  0  0  0  0  0
    5.3620    0.4910    1.1300 H   0  0  0  0  0  0  0  0  0  0  0  0
    0.3670   -2.6650    1.2750 H   0  0  0  0  0  0  0  0  0  0  0  0
    4.6480   -3.5590    1.9600 H   0  0  0  0  0  0  0  0  0  0  0  0
    6.1910   -1.7030    1.7150 H   0  0  0  0  0  0  0  0  0  0  0  0
    0.9100    2.7370   -1.3660 H   0  0  0  0  0  0  0  0  0  0  0  0
    0.0340    1.2950   -1.8880 H   0  0  0  0  0  0  0  0  0  0  0  0
    1.7680    1.4030   -2.1660 H   0  0  0  0  0  0  0  0  0  0  0  0
   -1.2230   -1.0680   -0.7640 H   0  0  0  0  0  0  0  0  0  0  0  0
   -3.6650    0.9890    1.1470 H   0  0  0  0  0  0  0  0  0  0  0  0
   -6.0140    0.8070    0.6500 H   0  0  0  0  0  0  0  0  0  0  0  0
   -5.1210   -1.9430   -2.4020 H   0  0  0  0  0  0  0  0  0  0  0  0
   -6.7760   -0.6660   -1.1340 H   0  0  0  0  0  0  0  0  0  0  0  0
  1  4  2  0  0  0  0
  1  2  1  0  0  0  0
  1  3  1  0  0  0  0
  2  6  2  0  0  0  0
  2  5  1  0  0  0  0
  3  8  1  0  0  0  0
  3  7  2  0  0  0  0
  4 24  1  0  0  0  0
  4  9  1  0  0  0  0
  5 11  2  0  0  0  0
  5 10  1  0  0  0  0
  5 12  2  0  0  0  0
  6 13  1  0  0  0  0
  6 25  1  0  0  0  0
  7 14  1  0  0  0  0
  7 10  1  0  0  0  0
  8 26  1  0  0  0  0
  9 27  1  0  0  0  0
  9 13  2  0  0  0  0
 10 15  1  0  0  0  0
 13 28  1  0  0  0  0
 14 17  2  0  0  0  0
 14 16  1  0  0  0  0
 15 29  1  0  0  0  0
 15 30  1  0  0  0  0
 15 31  1  0  0  0  0
 16 18  1  0  0  0  0
 16 32  1  0  0  0  0
 18 19  2  0  0  0  0
 18 20  1  0  0  0  0
 19 33  1  0  0  0  0
 19 21  1  0  0  0  0
 20 22  2  0  0  0  0
 21 34  1  0  0  0  0
 21 23  2  0  0  0  0
 22 23  1  0  0  0  0
 22 35  1  0  0  0  0
 23 36  1  0  0  0  0
M  END
