decoy-905
 OpenBabel06062114513D

 77 76  0  0  0  0  0  0  0  0999 V2000
   -0.0190    1.4640    0.0090 C   0  0  0  0  0  0  0  0  0  0  0  0
   -0.0150   -0.0680   -0.0280 C   0  0  0  0  0  0  0  0  0  0  0  0
    1.4120    2.0100    0.0280 C   0  0  0  0  0  0  0  0  0  0  0  0
   -0.7640    1.9390   -1.2420 C   0  0  0  0  0  0  0  0  0  0  0  0
   -0.7090    1.9740    1.2780 C   0  0  0  0  0  0  0  0  0  0  0  0
    0.6750   -0.8700    1.1200 C   0  0  0  0  0  0  0  0  0  0  0  0
    2.3900    1.6680   -1.1400 C   0  0  0  0  0  0  0  0  0  0  0  0
   -0.9450    3.4670   -1.5050 C   0  0  0  0  0  0  0  0  0  0  0  0
   -2.1950    1.5900    1.5620 C   0  0  0  0  0  0  0  0  0  0  0  0
    0.5810   -2.4070    0.9160 C   0  0  0  0  0  0  0  0  0  0  0  0
    3.7930    2.3060   -0.9530 C   0  0  0  0  0  0  0  0  0  0  0  0
   -1.7230    3.7610   -2.8170 C   0  0  0  0  0  0  0  0  0  0  0  0
   -2.7270    2.1950    2.8900 C   0  0  0  0  0  0  0  0  0  0  0  0
    1.2660   -3.2050    2.0570 C   0  0  0  0  0  0  0  0  0  0  0  0
    4.7650    1.9660   -2.1140 C   0  0  0  0  0  0  0  0  0  0  0  0
   -1.9020    5.2810   -3.0780 C   0  0  0  0  0  0  0  0  0  0  0  0
   -4.2050    1.8130    3.1720 C   0  0  0  0  0  0  0  0  0  0  0  0
    1.1710   -4.7400    1.8520 C   0  0  0  0  0  0  0  0  0  0  0  0
    6.1660    2.6050   -1.9250 C   0  0  0  0  0  0  0  0  0  0  0  0
   -2.6790    5.5720   -4.3890 C   0  0  0  0  0  0  0  0  0  0  0  0
   -4.7340    2.4180    4.4990 C   0  0  0  0  0  0  0  0  0  0  0  0
    1.8520   -5.5370    2.9860 C   0  0  0  0  0  0  0  0  0  0  0  0
    7.1350    2.2690   -3.0800 C   0  0  0  0  0  0  0  0  0  0  0  0
   -2.8590    7.0830   -4.6520 C   0  0  0  0  0  0  0  0  0  0  0  0
   -6.2040    2.0400    4.7820 C   0  0  0  0  0  0  0  0  0  0  0  0
   -1.0450   -0.4310   -0.0810 H   0  0  0  0  0  0  0  0  0  0  0  0
    0.4470   -0.4050   -0.9600 H   0  0  0  0  0  0  0  0  0  0  0  0
    1.3820    3.1010    0.0940 H   0  0  0  0  0  0  0  0  0  0  0  0
    1.9090    1.6890    0.9480 H   0  0  0  0  0  0  0  0  0  0  0  0
   -0.2760    1.5300   -2.1310 H   0  0  0  0  0  0  0  0  0  0  0  0
   -1.7680    1.5050   -1.2520 H   0  0  0  0  0  0  0  0  0  0  0  0
   -0.1370    1.6550    2.1540 H   0  0  0  0  0  0  0  0  0  0  0  0
   -0.6640    3.0660    1.3000 H   0  0  0  0  0  0  0  0  0  0  0  0
    1.7300   -0.6000    1.1750 H   0  0  0  0  0  0  0  0  0  0  0  0
    0.2060   -0.6250    2.0740 H   0  0  0  0  0  0  0  0  0  0  0  0
    2.5150    0.5860   -1.2100 H   0  0  0  0  0  0  0  0  0  0  0  0
    1.9760    2.0290   -2.0830 H   0  0  0  0  0  0  0  0  0  0  0  0
   -1.4920    3.9210   -0.6770 H   0  0  0  0  0  0  0  0  0  0  0  0
    0.0330    3.9460   -1.5760 H   0  0  0  0  0  0  0  0  0  0  0  0
   -2.8290    1.9470    0.7490 H   0  0  0  0  0  0  0  0  0  0  0  0
   -2.2900    0.5050    1.6210 H   0  0  0  0  0  0  0  0  0  0  0  0
   -0.4730   -2.6970    0.8650 H   0  0  0  0  0  0  0  0  0  0  0  0
    1.0530   -2.6710   -0.0340 H   0  0  0  0  0  0  0  0  0  0  0  0
    3.6860    3.3920   -0.8870 H   0  0  0  0  0  0  0  0  0  0  0  0
    4.2250    1.9490   -0.0130 H   0  0  0  0  0  0  0  0  0  0  0  0
   -1.1830    3.3180   -3.6590 H   0  0  0  0  0  0  0  0  0  0  0  0
   -2.7090    3.2930   -2.7590 H   0  0  0  0  0  0  0  0  0  0  0  0
   -2.1050    1.8410    3.7170 H   0  0  0  0  0  0  0  0  0  0  0  0
   -2.6450    3.2850    2.8440 H   0  0  0  0  0  0  0  0  0  0  0  0
    2.3200   -2.9190    2.1090 H   0  0  0  0  0  0  0  0  0  0  0  0
    0.7940   -2.9440    3.0080 H   0  0  0  0  0  0  0  0  0  0  0  0
    4.8750    0.8800   -2.1810 H   0  0  0  0  0  0  0  0  0  0  0  0
    4.3350    2.3240   -3.0540 H   0  0  0  0  0  0  0  0  0  0  0  0
   -2.4420    5.7260   -2.2380 H   0  0  0  0  0  0  0  0  0  0  0  0
   -0.9160    5.7510   -3.1380 H   0  0  0  0  0  0  0  0  0  0  0  0
   -4.8280    2.1680    2.3460 H   0  0  0  0  0  0  0  0  0  0  0  0
   -4.2890    0.7240    3.2200 H   0  0  0  0  0  0  0  0  0  0  0  0
    0.1190   -5.0350    1.8020 H   0  0  0  0  0  0  0  0  0  0  0  0
    1.6440   -5.0090    0.9030 H   0  0  0  0  0  0  0  0  0  0  0  0
    6.0640    3.6920   -1.8610 H   0  0  0  0  0  0  0  0  0  0  0  0
    6.6040    2.2490   -0.9880 H   0  0  0  0  0  0  0  0  0  0  0  0
   -2.1420    5.1330   -5.2340 H   0  0  0  0  0  0  0  0  0  0  0  0
   -3.6680    5.1080   -4.3350 H   0  0  0  0  0  0  0  0  0  0  0  0
   -4.1170    2.0650    5.3300 H   0  0  0  0  0  0  0  0  0  0  0  0
   -4.6560    3.5080    4.4570 H   0  0  0  0  0  0  0  0  0  0  0  0
    1.7570   -6.6080    2.7930 H   0  0  0  0  0  0  0  0  0  0  0  0
    2.9130   -5.2870    3.0430 H   0  0  0  0  0  0  0  0  0  0  0  0
    1.3820   -5.3120    3.9450 H   0  0  0  0  0  0  0  0  0  0  0  0
    8.1030    2.7400   -2.8980 H   0  0  0  0  0  0  0  0  0  0  0  0
    7.2820    1.1890   -3.1520 H   0  0  0  0  0  0  0  0  0  0  0  0
    6.7410    2.6380   -4.0280 H   0  0  0  0  0  0  0  0  0  0  0  0
   -3.4100    7.2330   -5.5830 H   0  0  0  0  0  0  0  0  0  0  0  0
   -3.4180    7.5480   -3.8380 H   0  0  0  0  0  0  0  0  0  0  0  0
   -1.8870    7.5730   -4.7400 H   0  0  0  0  0  0  0  0  0  0  0  0
   -6.5260    2.4900    5.7240 H   0  0  0  0  0  0  0  0  0  0  0  0
   -6.8520    2.4060    3.9830 H   0  0  0  0  0  0  0  0  0  0  0  0
   -6.3110    0.9570    4.8590 H   0  0  0  0  0  0  0  0  0  0  0  0
  1  3  1  0  0  0  0
  1  5  1  0  0  0  0
  1  2  1  0  0  0  0
  1  4  1  0  0  0  0
  2  6  1  0  0  0  0
  2 26  1  0  0  0  0
  2 27  1  0  0  0  0
  3 28  1  0  0  0  0
  3 29  1  0  0  0  0
  3  7  1  0  0  0  0
  4  8  1  0  0  0  0
  4 30  1  0  0  0  0
  4 31  1  0  0  0  0
  5 33  1  0  0  0  0
  5  9  1  0  0  0  0
  5 32  1  0  0  0  0
  6 34  1  0  0  0  0
  6 35  1  0  0  0  0
  6 10  1  0  0  0  0
  7 11  1  0  0  0  0
  7 36  1  0  0  0  0
  7 37  1  0  0  0  0
  8 38  1  0  0  0  0
  8 12  1  0  0  0  0
  8 39  1  0  0  0  0
  9 41  1  0  0  0  0
  9 13  1  0  0  0  0
  9 40  1  0  0  0  0
 10 14  1  0  0  0  0
 10 42  1  0  0  0  0
 10 43  1  0  0  0  0
 11 44  1  0  0  0  0
 11 45  1  0  0  0  0
 11 15  1  0  0  0  0
 12 47  1  0  0  0  0
 12 16  1  0  0  0  0
 12 46  1  0  0  0  0
 13 17  1  0  0  0  0
 13 48  1  0  0  0  0
 13 49  1  0  0  0  0
 14 50  1  0  0  0  0
 14 51  1  0  0  0  0
 14 18  1  0  0  0  0
 15 19  1  0  0  0  0
 15 52  1  0  0  0  0
 15 53  1  0  0  0  0
 16 54  1  0  0  0  0
 16 20  1  0  0  0  0
 16 55  1  0  0  0  0
 17 57  1  0  0  0  0
 17 21  1  0  0  0  0
 17 56  1  0  0  0  0
 18 22  1  0  0  0  0
 18 58  1  0  0  0  0
 18 59  1  0  0  0  0
 19 60  1  0  0  0  0
 19 61  1  0  0  0  0
 19 23  1  0  0  0  0
 20 63  1  0  0  0  0
 20 24  1  0  0  0  0
 20 62  1  0  0  0  0
 21 25  1  0  0  0  0
 21 64  1  0  0  0  0
 21 65  1  0  0  0  0
 22 67  1  0  0  0  0
 22 68  1  0  0  0  0
 22 66  1  0  0  0  0
 23 69  1  0  0  0  0
 23 70  1  0  0  0  0
 23 71  1  0  0  0  0
 24 73  1  0  0  0  0
 24 72  1  0  0  0  0
 24 74  1  0  0  0  0
 25 77  1  0  0  0  0
 25 75  1  0  0  0  0
 25 76  1  0  0  0  0
M  END
