decoy-1041
 OpenBabel06062114513D

 38 37  0  0  0  0  0  0  0  0999 V2000
    0.0030    1.5360    0.0090 C   0  0  0  0  0  0  0  0  0  0  0  0
   -0.0210   -0.0160    0.0010 C   0  0  0  0  0  0  0  0  0  0  0  0
    1.4440    2.1110   -0.0010 C   0  0  0  0  0  0  0  0  0  0  0  0
   -1.4620   -0.5910    0.0120 C   0  0  0  0  0  0  0  0  0  0  0  0
    1.4680    3.6620    0.0070 C   0  0  0  0  0  0  0  0  0  0  0  0
   -1.4860   -2.1420    0.0040 C   0  0  0  0  0  0  0  0  0  0  0  0
    2.9090    4.2370   -0.0040 C   0  0  0  0  0  0  0  0  0  0  0  0
   -2.9280   -2.7170    0.0140 C   0  0  0  0  0  0  0  0  0  0  0  0
    2.9320    5.7880    0.0040 C   0  0  0  0  0  0  0  0  0  0  0  0
   -2.9500   -4.2680    0.0060 C   0  0  0  0  0  0  0  0  0  0  0  0
    4.3660    6.3620   -0.0060 C   0  0  0  0  0  0  0  0  0  0  0  0
   -4.3850   -4.8420    0.0170 C   0  0  0  0  0  0  0  0  0  0  0  0
    4.3200    8.2910    0.0040 Br  0  0  0  0  0  0  0  0  0  0  0  0
   -4.3380   -6.7710    0.0060 Br  0  0  0  0  0  0  0  0  0  0  0  0
   -0.5340    1.9040   -0.8690 H   0  0  0  0  0  0  0  0  0  0  0  0
   -0.5170    1.8950    0.9020 H   0  0  0  0  0  0  0  0  0  0  0  0
    0.4990   -0.3750   -0.8920 H   0  0  0  0  0  0  0  0  0  0  0  0
    0.5160   -0.3850    0.8800 H   0  0  0  0  0  0  0  0  0  0  0  0
    1.9810    1.7420    0.8770 H   0  0  0  0  0  0  0  0  0  0  0  0
    1.9640    1.7510   -0.8940 H   0  0  0  0  0  0  0  0  0  0  0  0
   -1.9820   -0.2320    0.9050 H   0  0  0  0  0  0  0  0  0  0  0  0
   -1.9990   -0.2220   -0.8670 H   0  0  0  0  0  0  0  0  0  0  0  0
    0.9310    4.0310   -0.8720 H   0  0  0  0  0  0  0  0  0  0  0  0
    0.9480    4.0210    0.8990 H   0  0  0  0  0  0  0  0  0  0  0  0
   -0.9670   -2.5020   -0.8890 H   0  0  0  0  0  0  0  0  0  0  0  0
   -0.9500   -2.5110    0.8820 H   0  0  0  0  0  0  0  0  0  0  0  0
    3.4460    3.8690    0.8750 H   0  0  0  0  0  0  0  0  0  0  0  0
    3.4290    3.8780   -0.8970 H   0  0  0  0  0  0  0  0  0  0  0  0
   -3.4480   -2.3590    0.9070 H   0  0  0  0  0  0  0  0  0  0  0  0
   -3.4640   -2.3490   -0.8650 H   0  0  0  0  0  0  0  0  0  0  0  0
    2.3990    6.1610   -0.8740 H   0  0  0  0  0  0  0  0  0  0  0  0
    2.4160    6.1520    0.8970 H   0  0  0  0  0  0  0  0  0  0  0  0
   -2.4350   -4.6320   -0.8870 H   0  0  0  0  0  0  0  0  0  0  0  0
   -2.4180   -4.6420    0.8850 H   0  0  0  0  0  0  0  0  0  0  0  0
    4.9150    6.0240    0.8750 H   0  0  0  0  0  0  0  0  0  0  0  0
    4.8980    6.0340   -0.9020 H   0  0  0  0  0  0  0  0  0  0  0  0
   -4.9170   -4.5140    0.9120 H   0  0  0  0  0  0  0  0  0  0  0  0
   -4.9340   -4.5050   -0.8650 H   0  0  0  0  0  0  0  0  0  0  0  0
  1 16  1  0  0  0  0
  1  2  1  0  0  0  0
  1  3  1  0  0  0  0
  1 15  1  0  0  0  0
  2  4  1  0  0  0  0
  2 18  1  0  0  0  0
  2 17  1  0  0  0  0
  3  5  1  0  0  0  0
  3 19  1  0  0  0  0
  3 20  1  0  0  0  0
  4 21  1  0  0  0  0
  4  6  1  0  0  0  0
  4 22  1  0  0  0  0
  5 24  1  0  0  0  0
  5  7  1  0  0  0  0
  5 23  1  0  0  0  0
  6  8  1  0  0  0  0
  6 26  1  0  0  0  0
  6 25  1  0  0  0  0
  7  9  1  0  0  0  0
  7 27  1  0  0  0  0
  7 28  1  0  0  0  0
  8 29  1  0  0  0  0
  8 10  1  0  0  0  0
  8 30  1  0  0  0  0
  9 32  1  0  0  0  0
  9 11  1  0  0  0  0
  9 31  1  0  0  0  0
 10 12  1  0  0  0  0
 10 34  1  0  0  0  0
 10 33  1  0  0  0  0
 11 13  1  0  0  0  0
 11 35  1  0  0  0  0
 11 36  1  0  0  0  0
 12 37  1  0  0  0  0
 12 14  1  0  0  0  0
 12 38  1  0  0  0  0
M  END
