decoy-68
 OpenBabel06062114503D

 45 46  0  0  0  0  0  0  0  0999 V2000
   -1.4990   -0.8320   -0.4040 C   0  0  0  0  0  0  0  0  0  0  0  0
   -0.2500   -0.0390   -0.1870 C   0  0  0  0  0  0  0  0  0  0  0  0
   -2.7700   -0.2290   -0.2350 C   0  0  0  0  0  0  0  0  0  0  0  0
   -1.4520   -2.1980   -0.7790 C   0  0  0  0  0  0  0  0  0  0  0  0
    0.3540   -0.1650    1.2570 C   0  0  0  0  0  0  0  0  0  0  0  0
    0.7270   -0.3480   -1.1830 O   0  0  0  0  0  0  0  0  0  0  0  0
   -3.9530   -0.9690   -0.4150 C   0  0  0  0  0  0  0  0  0  0  0  0
   -2.6350   -2.9390   -0.9630 C   0  0  0  0  0  0  0  0  0  0  0  0
   -0.6590    0.3390    2.2770 C   0  0  0  0  0  0  0  0  0  0  0  0
    0.9690   -1.5810    1.4930 C   0  0  0  0  0  0  0  0  0  0  0  0
   -3.8860   -2.3250   -0.7780 C   0  0  0  0  0  0  0  0  0  0  0  0
   -0.7550   -0.3820    3.5950 C   0  0  0  0  0  0  0  0  0  0  0  0
   -0.5650    1.8260    2.4770 C   0  0  0  0  0  0  0  0  0  0  0  0
   -1.9590   -0.0700    4.3500 C   0  0  0  0  0  0  0  0  0  0  0  0
   -3.1930   -0.3220    3.8790 C   0  0  0  0  0  0  0  0  0  0  0  0
   -4.3590   -0.0330    4.5720 C   0  0  0  0  0  0  0  0  0  0  0  0
   -5.3590   -1.0250    4.7030 C   0  0  0  0  0  0  0  0  0  0  0  0
   -4.5980    1.2510    5.1210 C   0  0  0  0  0  0  0  0  0  0  0  0
   -6.5590   -0.7480    5.3840 C   0  0  0  0  0  0  0  0  0  0  0  0
   -5.7980    1.5270    5.8020 C   0  0  0  0  0  0  0  0  0  0  0  0
   -6.7780    0.5270    5.9350 C   0  0  0  0  0  0  0  0  0  0  0  0
   -0.4770    1.0140   -0.3650 H   0  0  0  0  0  0  0  0  0  0  0  0
   -2.8440    0.7560    0.0340 H   0  0  0  0  0  0  0  0  0  0  0  0
   -0.5540   -2.6650   -0.9220 H   0  0  0  0  0  0  0  0  0  0  0  0
    1.2280    0.4970    1.2820 H   0  0  0  0  0  0  0  0  0  0  0  0
    0.2880   -0.1600   -2.0400 H   0  0  0  0  0  0  0  0  0  0  0  0
   -4.8620   -0.5210   -0.2810 H   0  0  0  0  0  0  0  0  0  0  0  0
   -2.5840   -3.9240   -1.2300 H   0  0  0  0  0  0  0  0  0  0  0  0
    1.5040   -1.6050    2.4440 H   0  0  0  0  0  0  0  0  0  0  0  0
    0.1960   -2.3500    1.5080 H   0  0  0  0  0  0  0  0  0  0  0  0
    1.6870   -1.8300    0.7100 H   0  0  0  0  0  0  0  0  0  0  0  0
   -4.7450   -2.8630   -0.9090 H   0  0  0  0  0  0  0  0  0  0  0  0
   -0.7840   -1.4620    3.4430 H   0  0  0  0  0  0  0  0  0  0  0  0
    0.1300   -0.1630    4.2010 H   0  0  0  0  0  0  0  0  0  0  0  0
   -0.5590    2.3580    1.5260 H   0  0  0  0  0  0  0  0  0  0  0  0
   -1.4220    2.2020    3.0380 H   0  0  0  0  0  0  0  0  0  0  0  0
    0.3470    2.0880    3.0200 H   0  0  0  0  0  0  0  0  0  0  0  0
   -1.8530    0.3440    5.2490 H   0  0  0  0  0  0  0  0  0  0  0  0
   -3.2840   -0.7770    2.9990 H   0  0  0  0  0  0  0  0  0  0  0  0
   -5.2210   -1.9600    4.3090 H   0  0  0  0  0  0  0  0  0  0  0  0
   -3.9030    1.9960    5.0240 H   0  0  0  0  0  0  0  0  0  0  0  0
   -7.2740   -1.4730    5.4780 H   0  0  0  0  0  0  0  0  0  0  0  0
   -5.9600    2.4560    6.1960 H   0  0  0  0  0  0  0  0  0  0  0  0
   -7.6510    0.7290    6.4280 H   0  0  0  0  0  0  0  0  0  0  0  0
   -1.5680    0.1850    1.8420 H   0  0  0  0  0  0  0  0  0  0  0  0
  1  3  2  0  0  0  0
  1  2  1  0  0  0  0
  1  4  1  0  0  0  0
  2 22  1  0  0  0  0
  2  5  1  0  0  0  0
  2  6  1  0  0  0  0
  3 23  1  0  0  0  0
  3  7  1  0  0  0  0
  4  8  2  0  0  0  0
  4 24  1  0  0  0  0
  5 25  1  0  0  0  0
  5 10  1  0  0  0  0
  5  9  1  0  0  0  0
  6 26  1  0  0  0  0
  7 27  1  0  0  0  0
  7 11  2  0  0  0  0
  8 11  1  0  0  0  0
  8 28  1  0  0  0  0
  9 13  1  0  0  0  0
  9 12  1  0  0  0  0
  9 45  1  0  0  0  0
 10 30  1  0  0  0  0
 10 29  1  0  0  0  0
 10 31  1  0  0  0  0
 11 32  1  0  0  0  0
 12 34  1  0  0  0  0
 12 14  1  0  0  0  0
 12 33  1  0  0  0  0
 13 37  1  0  0  0  0
 13 36  1  0  0  0  0
 13 35  1  0  0  0  0
 14 38  1  0  0  0  0
 14 15  2  0  0  0  0
 15 16  1  0  0  0  0
 15 39  1  0  0  0  0
 16 17  2  0  0  0  0
 16 18  1  0  0  0  0
 17 19  1  0  0  0  0
 17 40  1  0  0  0  0
 18 20  2  0  0  0  0
 18 41  1  0  0  0  0
 19 42  1  0  0  0  0
 19 21  2  0  0  0  0
 20 21  1  0  0  0  0
 20 43  1  0  0  0  0
 21 44  1  0  0  0  0
M  END
