decoy-884
 OpenBabel06062114513D

 35 38  0  0  0  0  0  0  0  0999 V2000
   -1.4600    0.2530    1.2270 C   0  0  0  0  0  0  0  0  0  0  0  0
   -0.4530    0.1970    0.2100 C   0  0  0  0  0  0  0  0  0  0  0  0
   -1.5680   -0.7050    2.2230 N   0  0  0  0  0  0  0  0  0  0  0  0
   -2.4360    1.2770    1.1570 C   0  0  0  0  0  0  0  0  0  0  0  0
    0.5230   -0.8180    0.1660 C   0  0  0  0  0  0  0  0  0  0  0  0
   -0.4480    1.1850   -0.8090 C   0  0  0  0  0  0  0  0  0  0  0  0
   -1.3730   -2.0290    2.0460 C   0  0  0  0  0  0  0  0  0  0  0  0
   -1.8330   -0.5660    3.5440 C   0  0  0  0  0  0  0  0  0  0  0  0
   -2.4050    2.2530    0.1490 C   0  0  0  0  0  0  0  0  0  0  0  0
    1.8580   -0.5220   -0.0670 C   0  0  0  0  0  0  0  0  0  0  0  0
    0.2700   -2.0580    0.4170 N   0  0  0  0  0  0  0  0  0  0  0  0
   -1.4060    2.2120   -0.8350 C   0  0  0  0  0  0  0  0  0  0  0  0
   -0.9280   -2.6590    0.7910 C   0  0  0  0  0  0  0  0  0  0  0  0
   -1.5300   -2.6660    3.2150 N   0  0  0  0  0  0  0  0  0  0  0  0
   -1.8060   -1.7830    4.1150 N   0  0  0  0  0  0  0  0  0  0  0  0
   -2.0210    0.6620    4.3380 C   0  0  0  0  0  0  0  0  0  0  0  0
    2.5950    0.2450    0.8670 C   0  0  0  0  0  0  0  0  0  0  0  0
    2.5030   -0.9760   -1.2420 C   0  0  0  0  0  0  0  0  0  0  0  0
   -1.3760    3.3780   -2.0620 Cl  0  0  0  0  0  0  0  0  0  0  0  0
    3.9480    0.5510    0.6290 C   0  0  0  0  0  0  0  0  0  0  0  0
    3.8560   -0.6680   -1.4770 C   0  0  0  0  0  0  0  0  0  0  0  0
    4.5780    0.0950   -0.5430 C   0  0  0  0  0  0  0  0  0  0  0  0
   -3.2110    1.3010    1.8190 H   0  0  0  0  0  0  0  0  0  0  0  0
    0.2550    1.1580   -1.5520 H   0  0  0  0  0  0  0  0  0  0  0  0
   -3.1250    2.9800    0.1260 H   0  0  0  0  0  0  0  0  0  0  0  0
   -0.7580   -3.7270    0.9370 H   0  0  0  0  0  0  0  0  0  0  0  0
   -1.6840   -2.5260    0.0140 H   0  0  0  0  0  0  0  0  0  0  0  0
   -1.2260    1.3740    4.1100 H   0  0  0  0  0  0  0  0  0  0  0  0
   -1.9890    0.4370    5.4060 H   0  0  0  0  0  0  0  0  0  0  0  0
   -2.9870    1.1130    4.1170 H   0  0  0  0  0  0  0  0  0  0  0  0
    2.1530    0.5840    1.7260 H   0  0  0  0  0  0  0  0  0  0  0  0
    1.9920   -1.5300   -1.9350 H   0  0  0  0  0  0  0  0  0  0  0  0
    4.4730    1.1060    1.3080 H   0  0  0  0  0  0  0  0  0  0  0  0
    4.3150   -0.9990   -2.3290 H   0  0  0  0  0  0  0  0  0  0  0  0
    5.5610    0.3190   -0.7150 H   0  0  0  0  0  0  0  0  0  0  0  0
  1  3  1  0  0  0  0
  1  2  2  0  0  0  0
  1  4  1  0  0  0  0
  2  5  1  0  0  0  0
  2  6  1  0  0  0  0
  3  8  1  0  0  0  0
  3  7  1  0  0  0  0
  4 23  1  0  0  0  0
  4  9  2  0  0  0  0
  5 11  2  0  0  0  0
  5 10  1  0  0  0  0
  6 12  2  0  0  0  0
  6 24  1  0  0  0  0
  7 14  2  0  0  0  0
  7 13  1  0  0  0  0
  8 15  2  0  0  0  0
  8 16  1  0  0  0  0
  9 12  1  0  0  0  0
  9 25  1  0  0  0  0
 10 17  2  0  0  0  0
 10 18  1  0  0  0  0
 11 13  1  0  0  0  0
 12 19  1  0  0  0  0
 13 26  1  0  0  0  0
 13 27  1  0  0  0  0
 14 15  1  0  0  0  0
 16 29  1  0  0  0  0
 16 28  1  0  0  0  0
 16 30  1  0  0  0  0
 17 31  1  0  0  0  0
 17 20  1  0  0  0  0
 18 21  2  0  0  0  0
 18 32  1  0  0  0  0
 20 33  1  0  0  0  0
 20 22  2  0  0  0  0
 21 22  1  0  0  0  0
 21 34  1  0  0  0  0
 22 35  1  0  0  0  0
M  END
