decoy-21
 OpenBabel06062114503D

 51 51  0  0  0  0  0  0  0  0999 V2000
    0.1360    1.4250    0.6110 C   0  0  0  0  0  0  0  0  0  0  0  0
   -0.0920    0.5010   -0.4260 C   0  0  0  0  0  0  0  0  0  0  0  0
    1.3630    1.4010    1.3010 C   0  0  0  0  0  0  0  0  0  0  0  0
   -0.8480    2.3000    0.9840 O   0  0  0  0  0  0  0  0  0  0  0  0
    0.9100   -0.4190   -0.7890 C   0  0  0  0  0  0  0  0  0  0  0  0
    2.3640    0.4820    0.9380 C   0  0  0  0  0  0  0  0  0  0  0  0
   -0.7940    3.5570    0.2820 C   0  0  0  0  0  0  0  0  0  0  0  0
    2.1560   -0.4430   -0.1150 C   0  0  0  0  0  0  0  0  0  0  0  0
   -1.9460    4.4590    0.7820 C   0  0  0  0  0  0  0  0  0  0  0  0
    3.1650   -1.3700   -0.4820 C   0  0  0  0  0  0  0  0  0  0  0  0
   -1.9720    5.8440    0.0820 C   0  0  0  0  0  0  0  0  0  0  0  0
    4.3610   -1.4110    0.1490 O   0  0  0  0  0  0  0  0  0  0  0  0
    2.9870   -2.2620   -1.4840 O   0  0  0  0  0  0  0  0  0  0  0  0
   -3.1300    6.7450    0.5870 C   0  0  0  0  0  0  0  0  0  0  0  0
   -3.1560    8.1300   -0.1130 C   0  0  0  0  0  0  0  0  0  0  0  0
   -4.3140    9.0310    0.3920 C   0  0  0  0  0  0  0  0  0  0  0  0
   -4.3410   10.4160   -0.3070 C   0  0  0  0  0  0  0  0  0  0  0  0
   -5.4990   11.3180    0.1970 C   0  0  0  0  0  0  0  0  0  0  0  0
   -5.5250   12.7030   -0.5020 C   0  0  0  0  0  0  0  0  0  0  0  0
   -6.6830   13.6040    0.0030 C   0  0  0  0  0  0  0  0  0  0  0  0
   -6.7090   14.9880   -0.6970 C   0  0  0  0  0  0  0  0  0  0  0  0
   -7.8610   15.8880   -0.1970 C   0  0  0  0  0  0  0  0  0  0  0  0
   -0.9870    0.4980   -0.9210 H   0  0  0  0  0  0  0  0  0  0  0  0
    1.5290    2.0560    2.0690 H   0  0  0  0  0  0  0  0  0  0  0  0
    0.7140   -1.0720   -1.5520 H   0  0  0  0  0  0  0  0  0  0  0  0
    3.2460    0.4950    1.4560 H   0  0  0  0  0  0  0  0  0  0  0  0
    0.1610    4.0580    0.4720 H   0  0  0  0  0  0  0  0  0  0  0  0
   -0.9060    3.3980   -0.7950 H   0  0  0  0  0  0  0  0  0  0  0  0
   -2.8950    3.9470    0.6020 H   0  0  0  0  0  0  0  0  0  0  0  0
   -1.8360    4.6030    1.8610 H   0  0  0  0  0  0  0  0  0  0  0  0
   -1.0200    6.3520    0.2630 H   0  0  0  0  0  0  0  0  0  0  0  0
   -2.0800    5.6950   -0.9960 H   0  0  0  0  0  0  0  0  0  0  0  0
   -4.0810    6.2370    0.4060 H   0  0  0  0  0  0  0  0  0  0  0  0
   -3.0210    6.8930    1.6650 H   0  0  0  0  0  0  0  0  0  0  0  0
   -2.2050    8.6380    0.0680 H   0  0  0  0  0  0  0  0  0  0  0  0
   -3.2650    7.9820   -1.1910 H   0  0  0  0  0  0  0  0  0  0  0  0
   -5.2660    8.5230    0.2110 H   0  0  0  0  0  0  0  0  0  0  0  0
   -4.2060    9.1790    1.4700 H   0  0  0  0  0  0  0  0  0  0  0  0
   -3.3900   10.9250   -0.1270 H   0  0  0  0  0  0  0  0  0  0  0  0
   -4.4490   10.2680   -1.3850 H   0  0  0  0  0  0  0  0  0  0  0  0
   -6.4500   10.8100    0.0170 H   0  0  0  0  0  0  0  0  0  0  0  0
   -5.3900   11.4660    1.2760 H   0  0  0  0  0  0  0  0  0  0  0  0
   -4.5740   13.2110   -0.3210 H   0  0  0  0  0  0  0  0  0  0  0  0
   -5.6340   12.5550   -1.5800 H   0  0  0  0  0  0  0  0  0  0  0  0
   -7.6350   13.0960   -0.1780 H   0  0  0  0  0  0  0  0  0  0  0  0
   -6.5750   13.7530    1.0810 H   0  0  0  0  0  0  0  0  0  0  0  0
   -5.7610   15.5040   -0.5170 H   0  0  0  0  0  0  0  0  0  0  0  0
   -6.8210   14.8480   -1.7760 H   0  0  0  0  0  0  0  0  0  0  0  0
   -7.8340   16.8470   -0.7190 H   0  0  0  0  0  0  0  0  0  0  0  0
   -8.8250   15.4140   -0.3890 H   0  0  0  0  0  0  0  0  0  0  0  0
   -7.7620   16.0730    0.8750 H   0  0  0  0  0  0  0  0  0  0  0  0
  1  4  1  0  0  0  0
  1  3  2  0  0  0  0
  1  2  1  0  0  0  0
  2  5  2  0  0  0  0
  2 23  1  0  0  0  0
  3 24  1  0  0  0  0
  3  6  1  0  0  0  0
  4  7  1  0  0  0  0
  5  8  1  0  0  0  0
  5 25  1  0  0  0  0
  6 26  1  0  0  0  0
  6  8  2  0  0  0  0
  7 27  1  0  0  0  0
  7  9  1  0  0  0  0
  7 28  1  0  0  0  0
  8 10  1  0  0  0  0
  9 30  1  0  0  0  0
  9 11  1  0  0  0  0
  9 29  1  0  0  0  0
 10 12  1  0  0  0  0
 10 13  2  0  0  0  0
 11 31  1  0  0  0  0
 11 14  1  0  0  0  0
 11 32  1  0  0  0  0
 14 34  1  0  0  0  0
 14 15  1  0  0  0  0
 14 33  1  0  0  0  0
 15 35  1  0  0  0  0
 15 16  1  0  0  0  0
 15 36  1  0  0  0  0
 16 38  1  0  0  0  0
 16 17  1  0  0  0  0
 16 37  1  0  0  0  0
 17 39  1  0  0  0  0
 17 18  1  0  0  0  0
 17 40  1  0  0  0  0
 18 42  1  0  0  0  0
 18 19  1  0  0  0  0
 18 41  1  0  0  0  0
 19 43  1  0  0  0  0
 19 20  1  0  0  0  0
 19 44  1  0  0  0  0
 20 46  1  0  0  0  0
 20 21  1  0  0  0  0
 20 45  1  0  0  0  0
 21 47  1  0  0  0  0
 21 22  1  0  0  0  0
 21 48  1  0  0  0  0
 22 51  1  0  0  0  0
 22 49  1  0  0  0  0
 22 50  1  0  0  0  0
M  END
