decoy-276
 OpenBabel06062114513D

 78 81  0  0  0  0  0  0  0  0999 V2000
   -2.0580    2.0480    0.2990 C   0  0  0  0  0  0  0  0  0  0  0  0
   -1.7150    0.5340    0.4920 C   0  0  0  0  0  0  0  0  0  0  0  0
   -0.7830    2.9290    0.5440 C   0  0  0  0  0  0  0  0  0  0  0  0
   -2.6110    2.3360   -1.1270 C   0  0  0  0  0  0  0  0  0  0  0  0
   -1.1480    0.1720    1.9070 C   0  0  0  0  0  0  0  0  0  0  0  0
   -2.8070   -0.5210    0.2380 C   0  0  0  0  0  0  0  0  0  0  0  0
   -1.0990    4.4800    0.3390 C   0  0  0  0  0  0  0  0  0  0  0  0
   -0.0380    2.5330    1.8700 C   0  0  0  0  0  0  0  0  0  0  0  0
   -2.5880    3.7290   -1.5270 C   0  0  0  0  0  0  0  0  0  0  0  0
   -0.9810   -1.3870    1.7400 C   0  0  0  0  0  0  0  0  0  0  0  0
    0.1780    1.0000    2.0560 C   0  0  0  0  0  0  0  0  0  0  0  0
   -2.1240    0.4970    3.1010 C   0  0  0  0  0  0  0  0  0  0  0  0
   -2.2500   -1.7940    0.9180 C   0  0  0  0  0  0  0  0  0  0  0  0
   -1.9100    4.7170   -0.8990 C   0  0  0  0  0  0  0  0  0  0  0  0
    0.2780    5.2450    0.2050 C   0  0  0  0  0  0  0  0  0  0  0  0
   -1.8970    5.0670    1.5600 C   0  0  0  0  0  0  0  0  0  0  0  0
   -0.7520   -2.3160    2.9940 C   0  0  0  0  0  0  0  0  0  0  0  0
   -2.0180    6.0890   -1.4390 C   0  0  0  0  0  0  0  0  0  0  0  0
    0.1790    6.7060   -0.3030 C   0  0  0  0  0  0  0  0  0  0  0  0
   -0.6460   -3.7210    2.5860 C   0  0  0  0  0  0  0  0  0  0  0  0
    0.5190   -1.9650    3.8190 C   0  0  0  0  0  0  0  0  0  0  0  0
   -0.6340    6.7600   -1.6180 C   0  0  0  0  0  0  0  0  0  0  0  0
   -1.4510   -4.7020    3.0330 C   0  0  0  0  0  0  0  0  0  0  0  0
   -0.7930    8.1190   -2.0210 O   0  0  0  0  0  0  0  0  0  0  0  0
   -1.3050   -6.1150    2.6670 C   0  0  0  0  0  0  0  0  0  0  0  0
   -2.6160   -6.6500    1.9690 C   0  0  0  0  0  0  0  0  0  0  0  0
   -0.8910   -6.9320    3.9380 C   0  0  0  0  0  0  0  0  0  0  0  0
   -2.9950   -5.8210    0.7030 C   0  0  0  0  0  0  0  0  0  0  0  0
   -2.5380   -8.1550    1.5710 C   0  0  0  0  0  0  0  0  0  0  0  0
    0.4050   -6.4550    4.6400 C   0  0  0  0  0  0  0  0  0  0  0  0
   -2.8380    2.3220    1.0100 H   0  0  0  0  0  0  0  0  0  0  0  0
   -0.9350    0.3200   -0.2550 H   0  0  0  0  0  0  0  0  0  0  0  0
   -0.0860    2.6440   -0.2540 H   0  0  0  0  0  0  0  0  0  0  0  0
   -2.0360    1.7820   -1.8740 H   0  0  0  0  0  0  0  0  0  0  0  0
   -3.6450    1.9820   -1.1760 H   0  0  0  0  0  0  0  0  0  0  0  0
   -3.7520   -0.2130    0.6930 H   0  0  0  0  0  0  0  0  0  0  0  0
   -2.9690   -0.6800   -0.8320 H   0  0  0  0  0  0  0  0  0  0  0  0
    0.9460    3.0070    1.8890 H   0  0  0  0  0  0  0  0  0  0  0  0
   -0.5840    2.9000    2.7370 H   0  0  0  0  0  0  0  0  0  0  0  0
   -3.0910    3.9390   -2.3600 H   0  0  0  0  0  0  0  0  0  0  0  0
   -0.1150   -1.5470    1.0850 H   0  0  0  0  0  0  0  0  0  0  0  0
    0.6220    0.8400    3.0380 H   0  0  0  0  0  0  0  0  0  0  0  0
    0.9120    0.6640    1.3180 H   0  0  0  0  0  0  0  0  0  0  0  0
   -3.0350   -0.1000    3.0530 H   0  0  0  0  0  0  0  0  0  0  0  0
   -1.6410    0.2870    4.0560 H   0  0  0  0  0  0  0  0  0  0  0  0
   -2.4260    1.5410    3.1200 H   0  0  0  0  0  0  0  0  0  0  0  0
   -3.0230   -2.2190    1.5650 H   0  0  0  0  0  0  0  0  0  0  0  0
   -1.9880   -2.5440    0.1650 H   0  0  0  0  0  0  0  0  0  0  0  0
    0.7960    5.2650    1.1680 H   0  0  0  0  0  0  0  0  0  0  0  0
    0.9300    4.7120   -0.4950 H   0  0  0  0  0  0  0  0  0  0  0  0
   -2.8310    4.5280    1.7200 H   0  0  0  0  0  0  0  0  0  0  0  0
   -1.3140    5.0180    2.4790 H   0  0  0  0  0  0  0  0  0  0  0  0
   -2.1520    6.1170    1.4200 H   0  0  0  0  0  0  0  0  0  0  0  0
   -1.6060   -2.1940    3.6670 H   0  0  0  0  0  0  0  0  0  0  0  0
   -2.5220    6.1230   -2.4110 H   0  0  0  0  0  0  0  0  0  0  0  0
   -2.6250    6.6930   -0.7620 H   0  0  0  0  0  0  0  0  0  0  0  0
   -0.2950    7.3350    0.4540 H   0  0  0  0  0  0  0  0  0  0  0  0
    1.1840    7.0990   -0.4810 H   0  0  0  0  0  0  0  0  0  0  0  0
    0.0880   -3.9590    1.9580 H   0  0  0  0  0  0  0  0  0  0  0  0
    0.7180   -2.7300    4.5740 H   0  0  0  0  0  0  0  0  0  0  0  0
    1.3940   -1.8830    3.1710 H   0  0  0  0  0  0  0  0  0  0  0  0
    0.3850   -1.0260    4.3520 H   0  0  0  0  0  0  0  0  0  0  0  0
   -0.0790    6.2410   -2.4060 H   0  0  0  0  0  0  0  0  0  0  0  0
   -2.1770   -4.4690    3.6720 H   0  0  0  0  0  0  0  0  0  0  0  0
   -1.2760    8.0770   -2.8730 H   0  0  0  0  0  0  0  0  0  0  0  0
   -0.4900   -6.2320    1.9430 H   0  0  0  0  0  0  0  0  0  0  0  0
   -3.4460   -6.5520    2.6770 H   0  0  0  0  0  0  0  0  0  0  0  0
   -1.7080   -6.9210    4.6660 H   0  0  0  0  0  0  0  0  0  0  0  0
   -0.7150   -7.9720    3.6560 H   0  0  0  0  0  0  0  0  0  0  0  0
   -3.8940   -6.2220    0.2310 H   0  0  0  0  0  0  0  0  0  0  0  0
   -3.2050   -4.7850    0.9680 H   0  0  0  0  0  0  0  0  0  0  0  0
   -2.1810   -5.8380   -0.0250 H   0  0  0  0  0  0  0  0  0  0  0  0
   -2.5010   -8.7900    2.4560 H   0  0  0  0  0  0  0  0  0  0  0  0
   -3.4220   -8.4540    1.0040 H   0  0  0  0  0  0  0  0  0  0  0  0
   -1.6540   -8.3460    0.9600 H   0  0  0  0  0  0  0  0  0  0  0  0
    0.6660   -7.1450    5.4440 H   0  0  0  0  0  0  0  0  0  0  0  0
    1.2320   -6.4220    3.9280 H   0  0  0  0  0  0  0  0  0  0  0  0
    0.2690   -5.4620    5.0730 H   0  0  0  0  0  0  0  0  0  0  0  0
  1  2  1  0  0  0  0
  1 31  1  0  0  0  0
  1  3  1  0  0  0  0
  1  4  1  0  0  0  0
  2  5  1  0  0  0  0
  2  6  1  0  0  0  0
  2 32  1  0  0  0  0
  3  8  1  0  0  0  0
  3  7  1  0  0  0  0
  3 33  1  0  0  0  0
  4  9  1  0  0  0  0
  4 34  1  0  0  0  0
  4 35  1  0  0  0  0
  5 10  1  0  0  0  0
  5 11  1  0  0  0  0
  5 12  1  0  0  0  0
  6 36  1  0  0  0  0
  6 13  1  0  0  0  0
  6 37  1  0  0  0  0
  7 16  1  0  0  0  0
  7 14  1  0  0  0  0
  7 15  1  0  0  0  0
  8 38  1  0  0  0  0
  8 11  1  0  0  0  0
  8 39  1  0  0  0  0
  9 14  2  0  0  0  0
  9 40  1  0  0  0  0
 10 41  1  0  0  0  0
 10 17  1  0  0  0  0
 10 13  1  0  0  0  0
 11 42  1  0  0  0  0
 11 43  1  0  0  0  0
 12 46  1  0  0  0  0
 12 45  1  0  0  0  0
 12 44  1  0  0  0  0
 13 47  1  0  0  0  0
 13 48  1  0  0  0  0
 14 18  1  0  0  0  0
 15 49  1  0  0  0  0
 15 19  1  0  0  0  0
 15 50  1  0  0  0  0
 16 51  1  0  0  0  0
 16 52  1  0  0  0  0
 16 53  1  0  0  0  0
 17 54  1  0  0  0  0
 17 21  1  0  0  0  0
 17 20  1  0  0  0  0
 18 56  1  0  0  0  0
 18 22  1  0  0  0  0
 18 55  1  0  0  0  0
 19 57  1  0  0  0  0
 19 22  1  0  0  0  0
 19 58  1  0  0  0  0
 20 23  2  0  0  0  0
 20 59  1  0  0  0  0
 21 62  1  0  0  0  0
 21 60  1  0  0  0  0
 21 61  1  0  0  0  0
 22 63  1  0  0  0  0
 22 24  1  0  0  0  0
 23 64  1  0  0  0  0
 23 25  1  0  0  0  0
 24 65  1  0  0  0  0
 25 66  1  0  0  0  0
 25 27  1  0  0  0  0
 25 26  1  0  0  0  0
 26 67  1  0  0  0  0
 26 28  1  0  0  0  0
 26 29  1  0  0  0  0
 27 30  1  0  0  0  0
 27 68  1  0  0  0  0
 27 69  1  0  0  0  0
 28 71  1  0  0  0  0
 28 70  1  0  0  0  0
 28 72  1  0  0  0  0
 29 73  1  0  0  0  0
 29 74  1  0  0  0  0
 29 75  1  0  0  0  0
 30 78  1  0  0  0  0
 30 76  1  0  0  0  0
 30 77  1  0  0  0  0
M  END
