decoy-142
 OpenBabel06062114503D

 36 36  0  0  0  0  0  0  0  0999 V2000
    0.2820    1.5390    0.3410 C   0  0  0  0  0  0  0  0  0  0  0  0
    0.0600   -0.0020    0.4490 C   0  0  0  0  0  0  0  0  0  0  0  0
    1.6980    1.9480   -0.1820 C   0  0  0  0  0  0  0  0  0  0  0  0
   -1.1030    2.3730   -0.7230 Br  0  0  0  0  0  0  0  0  0  0  0  0
   -1.1930   -0.4120    1.2880 C   0  0  0  0  0  0  0  0  0  0  0  0
    0.0070   -0.8270   -1.3010 Br  0  0  0  0  0  0  0  0  0  0  0  0
    2.2760    3.2530    0.4490 C   0  0  0  0  0  0  0  0  0  0  0  0
   -1.0240   -1.7220    2.1190 C   0  0  0  0  0  0  0  0  0  0  0  0
    3.1380    3.1490    1.7520 C   0  0  0  0  0  0  0  0  0  0  0  0
   -0.4720   -1.6280    3.5810 C   0  0  0  0  0  0  0  0  0  0  0  0
    2.4420    2.5940    3.0400 C   0  0  0  0  0  0  0  0  0  0  0  0
    4.8170    2.2560    1.3890 Br  0  0  0  0  0  0  0  0  0  0  0  0
    0.9810   -1.0780    3.7740 C   0  0  0  0  0  0  0  0  0  0  0  0
   -1.7460   -0.7380    4.7360 Br  0  0  0  0  0  0  0  0  0  0  0  0
    2.4190    1.0390    3.1960 C   0  0  0  0  0  0  0  0  0  0  0  0
    3.2850    3.3460    4.6120 Br  0  0  0  0  0  0  0  0  0  0  0  0
    1.1260    0.4770    3.8560 C   0  0  0  0  0  0  0  0  0  0  0  0
    1.7600   -1.8400    5.3740 Br  0  0  0  0  0  0  0  0  0  0  0  0
    0.1600    1.9590    1.3350 H   0  0  0  0  0  0  0  0  0  0  0  0
    0.9370   -0.4270    0.9290 H   0  0  0  0  0  0  0  0  0  0  0  0
    2.4200    1.1440   -0.0380 H   0  0  0  0  0  0  0  0  0  0  0  0
    1.6240    2.0880   -1.2640 H   0  0  0  0  0  0  0  0  0  0  0  0
   -1.4970    0.3890    1.9620 H   0  0  0  0  0  0  0  0  0  0  0  0
   -2.0280   -0.5460    0.5950 H   0  0  0  0  0  0  0  0  0  0  0  0
    2.9140    3.7210   -0.3070 H   0  0  0  0  0  0  0  0  0  0  0  0
    1.4560    3.9550    0.6260 H   0  0  0  0  0  0  0  0  0  0  0  0
   -2.0120   -2.1870    2.1920 H   0  0  0  0  0  0  0  0  0  0  0  0
   -0.4020   -2.4220    1.5550 H   0  0  0  0  0  0  0  0  0  0  0  0
    3.4180    4.1820    1.9780 H   0  0  0  0  0  0  0  0  0  0  0  0
   -0.4560   -2.6630    3.9350 H   0  0  0  0  0  0  0  0  0  0  0  0
    1.4240    2.9880    3.0500 H   0  0  0  0  0  0  0  0  0  0  0  0
    1.5840   -1.4690    2.9520 H   0  0  0  0  0  0  0  0  0  0  0  0
    2.5310    0.5840    2.2180 H   0  0  0  0  0  0  0  0  0  0  0  0
    3.2820    0.7100    3.7810 H   0  0  0  0  0  0  0  0  0  0  0  0
    0.2680    0.9360    3.3760 H   0  0  0  0  0  0  0  0  0  0  0  0
    1.0950    0.8000    4.8990 H   0  0  0  0  0  0  0  0  0  0  0  0
  1  2  1  0  0  0  0
  1 19  1  0  0  0  0
  1  3  1  0  0  0  0
  1  4  1  0  0  0  0
  2 20  1  0  0  0  0
  2  5  1  0  0  0  0
  2  6  1  0  0  0  0
  3 21  1  0  0  0  0
  3  7  1  0  0  0  0
  3 22  1  0  0  0  0
  5 23  1  0  0  0  0
  5  8  1  0  0  0  0
  5 24  1  0  0  0  0
  7 26  1  0  0  0  0
  7  9  1  0  0  0  0
  7 25  1  0  0  0  0
  8 27  1  0  0  0  0
  8 10  1  0  0  0  0
  8 28  1  0  0  0  0
  9 29  1  0  0  0  0
  9 11  1  0  0  0  0
  9 12  1  0  0  0  0
 10 13  1  0  0  0  0
 10 30  1  0  0  0  0
 10 14  1  0  0  0  0
 11 31  1  0  0  0  0
 11 15  1  0  0  0  0
 11 16  1  0  0  0  0
 13 32  1  0  0  0  0
 13 17  1  0  0  0  0
 13 18  1  0  0  0  0
 15 34  1  0  0  0  0
 15 17  1  0  0  0  0
 15 33  1  0  0  0  0
 17 36  1  0  0  0  0
 17 35  1  0  0  0  0
M  END
