decoy-923
 OpenBabel06062114513D

 39 38  0  0  0  0  0  0  0  0999 V2000
    0.0470    1.6390    0.2080 C   0  0  0  0  0  0  0  0  0  0  0  0
   -0.1680    0.1660    0.1140 C   0  0  0  0  0  0  0  0  0  0  0  0
    1.5530    1.9730   -0.0040 C   0  0  0  0  0  0  0  0  0  0  0  0
   -0.7810    2.3770   -0.7770 C   0  0  0  0  0  0  0  0  0  0  0  0
   -1.4230   -0.3880    0.6960 C   0  0  0  0  0  0  0  0  0  0  0  0
    2.4880    1.4270    1.1120 C   0  0  0  0  0  0  0  0  0  0  0  0
   -0.8770    3.7240   -0.7050 O   0  0  0  0  0  0  0  0  0  0  0  0
   -1.4370    1.7520   -1.7810 O   0  0  0  0  0  0  0  0  0  0  0  0
   -1.7050   -1.8040    0.1090 C   0  0  0  0  0  0  0  0  0  0  0  0
   -1.3570   -0.4560    2.1760 C   0  0  0  0  0  0  0  0  0  0  0  0
    3.9100    1.7900    0.9610 C   0  0  0  0  0  0  0  0  0  0  0  0
   -2.0100   -1.8080   -1.4150 C   0  0  0  0  0  0  0  0  0  0  0  0
   -2.4700   -0.7380    2.8920 O   0  0  0  0  0  0  0  0  0  0  0  0
   -0.2030   -0.2700    2.8560 O   0  0  0  0  0  0  0  0  0  0  0  0
    4.8020    1.3710    1.8870 O   0  0  0  0  0  0  0  0  0  0  0  0
    4.3720    2.5210   -0.0790 O   0  0  0  0  0  0  0  0  0  0  0  0
   -2.3620   -3.2190   -1.9470 C   0  0  0  0  0  0  0  0  0  0  0  0
   -2.6280   -3.1750   -3.3490 N   0  0  0  0  0  0  0  0  0  0  0  0
   -2.9640   -4.2400   -4.1110 C   0  0  0  0  0  0  0  0  0  0  0  0
   -3.1850   -4.0440   -5.4190 C   0  0  0  0  0  0  0  0  0  0  0  0
   -3.0880   -5.4880   -3.6280 N   0  0  0  0  0  0  0  0  0  0  0  0
   -0.2420    1.9850    1.2050 H   0  0  0  0  0  0  0  0  0  0  0  0
   -0.1320   -0.0790   -0.8760 H   0  0  0  0  0  0  0  0  0  0  0  0
    1.8760    1.5710   -0.9700 H   0  0  0  0  0  0  0  0  0  0  0  0
    1.6750    3.0610   -0.0360 H   0  0  0  0  0  0  0  0  0  0  0  0
   -2.2640    0.2620    0.4350 H   0  0  0  0  0  0  0  0  0  0  0  0
    2.1460    1.8070    2.0780 H   0  0  0  0  0  0  0  0  0  0  0  0
    2.4300    0.3370    1.1360 H   0  0  0  0  0  0  0  0  0  0  0  0
   -0.8430   -2.4490    0.3030 H   0  0  0  0  0  0  0  0  0  0  0  0
   -2.5680   -2.2380    0.6220 H   0  0  0  0  0  0  0  0  0  0  0  0
   -2.8490   -1.1360   -1.6140 H   0  0  0  0  0  0  0  0  0  0  0  0
   -1.1400   -1.4390   -1.9640 H   0  0  0  0  0  0  0  0  0  0  0  0
   -1.5250   -3.8970   -1.7600 H   0  0  0  0  0  0  0  0  0  0  0  0
   -3.2460   -3.5950   -1.4250 H   0  0  0  0  0  0  0  0  0  0  0  0
   -2.5640   -2.3130   -3.7910 H   0  0  0  0  0  0  0  0  0  0  0  0
   -3.4280   -4.7910   -5.9890 H   0  0  0  0  0  0  0  0  0  0  0  0
   -3.1040   -3.1550   -5.7990 H   0  0  0  0  0  0  0  0  0  0  0  0
   -2.9360   -5.6700   -2.6870 H   0  0  0  0  0  0  0  0  0  0  0  0
    0.6110   -0.3070    0.5730 H   0  0  0  0  0  0  0  0  0  0  0  0
  1 22  1  0  0  0  0
  1  2  1  0  0  0  0
  1  3  1  0  0  0  0
  1  4  1  0  0  0  0
  2 39  1  0  0  0  0
  2  5  1  0  0  0  0
  2 23  1  0  0  0  0
  3  6  1  0  0  0  0
  3 24  1  0  0  0  0
  3 25  1  0  0  0  0
  4  7  1  0  0  0  0
  4  8  2  0  0  0  0
  5 26  1  0  0  0  0
  5 10  1  0  0  0  0
  5  9  1  0  0  0  0
  6 28  1  0  0  0  0
  6 27  1  0  0  0  0
  6 11  1  0  0  0  0
  9 29  1  0  0  0  0
  9 30  1  0  0  0  0
  9 12  1  0  0  0  0
 10 14  2  0  0  0  0
 10 13  1  0  0  0  0
 11 15  1  0  0  0  0
 11 16  2  0  0  0  0
 12 17  1  0  0  0  0
 12 31  1  0  0  0  0
 12 32  1  0  0  0  0
 17 33  1  0  0  0  0
 17 34  1  0  0  0  0
 17 18  1  0  0  0  0
 18 19  1  0  0  0  0
 18 35  1  0  0  0  0
 19 21  1  0  0  0  0
 19 20  2  0  0  0  0
 20 36  1  0  0  0  0
 20 37  1  0  0  0  0
 21 38  1  0  0  0  0
M  END
