decoy-814
 OpenBabel06062114513D

 26 27  0  0  0  0  0  0  0  0999 V2000
   -0.0460    1.5110   -0.0330 C   0  0  0  0  0  0  0  0  0  0  0  0
    0.0020    0.1220    0.0250 C   0  0  0  0  0  0  0  0  0  0  0  0
    1.1840    2.1610   -0.0540 C   0  0  0  0  0  0  0  0  0  0  0  0
   -1.2160    2.1880   -0.0680 C   0  0  0  0  0  0  0  0  0  0  0  0
    0.0270   -0.6450   -1.1630 C   0  0  0  0  0  0  0  0  0  0  0  0
    0.0150   -0.5440    1.2730 C   0  0  0  0  0  0  0  0  0  0  0  0
    1.8090    2.5520    1.1530 C   0  0  0  0  0  0  0  0  0  0  0  0
    1.8220    2.4510   -1.2830 C   0  0  0  0  0  0  0  0  0  0  0  0
   -2.7050    1.4380   -0.0440 Cl  0  0  0  0  0  0  0  0  0  0  0  0
   -1.3060    3.8520   -0.1380 Cl  0  0  0  0  0  0  0  0  0  0  0  0
    0.0700   -2.0510   -1.1030 C   0  0  0  0  0  0  0  0  0  0  0  0
    0.0570   -1.9490    1.3310 C   0  0  0  0  0  0  0  0  0  0  0  0
    3.0500    3.2150    1.1310 C   0  0  0  0  0  0  0  0  0  0  0  0
    3.0630    3.1130   -1.3030 C   0  0  0  0  0  0  0  0  0  0  0  0
    0.0860   -2.7060    0.1430 C   0  0  0  0  0  0  0  0  0  0  0  0
    3.6810    3.4960   -0.0970 C   0  0  0  0  0  0  0  0  0  0  0  0
    0.1360   -4.3960    0.2140 Cl  0  0  0  0  0  0  0  0  0  0  0  0
    5.1730    4.2940   -0.1220 Cl  0  0  0  0  0  0  0  0  0  0  0  0
    0.0120   -0.1870   -2.0780 H   0  0  0  0  0  0  0  0  0  0  0  0
   -0.0100   -0.0110    2.1460 H   0  0  0  0  0  0  0  0  0  0  0  0
    1.3640    2.3600    2.0550 H   0  0  0  0  0  0  0  0  0  0  0  0
    1.3870    2.1840   -2.1700 H   0  0  0  0  0  0  0  0  0  0  0  0
    0.0880   -2.5920   -1.9710 H   0  0  0  0  0  0  0  0  0  0  0  0
    0.0660   -2.4160    2.2410 H   0  0  0  0  0  0  0  0  0  0  0  0
    3.4900    3.4910    2.0120 H   0  0  0  0  0  0  0  0  0  0  0  0
    3.5120    3.3150   -2.1990 H   0  0  0  0  0  0  0  0  0  0  0  0
  1  2  1  0  0  0  0
  1  3  1  0  0  0  0
  1  4  2  0  0  0  0
  2  6  2  0  0  0  0
  2  5  1  0  0  0  0
  3  7  2  0  0  0  0
  3  8  1  0  0  0  0
  4  9  1  0  0  0  0
  4 10  1  0  0  0  0
  5 11  2  0  0  0  0
  5 19  1  0  0  0  0
  6 12  1  0  0  0  0
  6 20  1  0  0  0  0
  7 21  1  0  0  0  0
  7 13  1  0  0  0  0
  8 14  2  0  0  0  0
  8 22  1  0  0  0  0
 11 15  1  0  0  0  0
 11 23  1  0  0  0  0
 12 24  1  0  0  0  0
 12 15  2  0  0  0  0
 13 25  1  0  0  0  0
 13 16  2  0  0  0  0
 14 16  1  0  0  0  0
 14 26  1  0  0  0  0
 15 17  1  0  0  0  0
 16 18  1  0  0  0  0
M  END
