decoy-686
 OpenBabel06062114513D

 52 55  0  0  0  0  0  0  0  0999 V2000
   -0.6060    0.0100    0.6470 C   0  0  0  0  0  0  0  0  0  0  0  0
    0.4200   -0.3100   -0.5100 C   0  0  0  0  0  0  0  0  0  0  0  0
   -2.0690   -0.1820    0.1220 C   0  0  0  0  0  0  0  0  0  0  0  0
   -0.3840    1.4500    1.2030 C   0  0  0  0  0  0  0  0  0  0  0  0
    1.9320   -0.0940   -0.0670 C   0  0  0  0  0  0  0  0  0  0  0  0
    0.1170   -1.6840   -1.2120 C   0  0  0  0  0  0  0  0  0  0  0  0
   -2.3670   -1.6160   -0.4240 C   0  0  0  0  0  0  0  0  0  0  0  0
   -3.2610    0.1160    1.0560 C   0  0  0  0  0  0  0  0  0  0  0  0
    1.0810    1.7020    1.6360 C   0  0  0  0  0  0  0  0  0  0  0  0
    2.0810    1.3790    0.4880 C   0  0  0  0  0  0  0  0  0  0  0  0
    2.8990   -0.1820   -1.3060 C   0  0  0  0  0  0  0  0  0  0  0  0
    2.3990   -1.1660    0.9850 C   0  0  0  0  0  0  0  0  0  0  0  0
   -1.3770   -1.8650   -1.6160 C   0  0  0  0  0  0  0  0  0  0  0  0
   -3.9070   -1.4960   -0.7640 C   0  0  0  0  0  0  0  0  0  0  0  0
   -2.1690   -2.7660    0.6430 C   0  0  0  0  0  0  0  0  0  0  0  0
   -4.4650   -0.6040    0.3960 C   0  0  0  0  0  0  0  0  0  0  0  0
    3.5420    1.7550    0.8860 C   0  0  0  0  0  0  0  0  0  0  0  0
    4.1990    0.3850   -1.0750 O   0  0  0  0  0  0  0  0  0  0  0  0
   -4.2640   -0.8870   -2.1570 C   0  0  0  0  0  0  0  0  0  0  0  0
   -4.5720   -2.7650   -0.7480 O   0  0  0  0  0  0  0  0  0  0  0  0
    4.5320    1.2640   -0.0920 C   0  0  0  0  0  0  0  0  0  0  0  0
    5.8230    1.6500    0.0120 O   0  0  0  0  0  0  0  0  0  0  0  0
   -0.4490   -0.6750    1.4800 H   0  0  0  0  0  0  0  0  0  0  0  0
    0.2240    0.4380   -1.2880 H   0  0  0  0  0  0  0  0  0  0  0  0
   -2.1680    0.5330   -0.7050 H   0  0  0  0  0  0  0  0  0  0  0  0
    1.8200    2.0620   -0.3320 H   0  0  0  0  0  0  0  0  0  0  0  0
   -0.6570    2.1860    0.4410 H   0  0  0  0  0  0  0  0  0  0  0  0
   -1.0300    1.6150    2.0700 H   0  0  0  0  0  0  0  0  0  0  0  0
    0.7150   -1.7650   -2.1230 H   0  0  0  0  0  0  0  0  0  0  0  0
    0.4090   -2.5130   -0.5710 H   0  0  0  0  0  0  0  0  0  0  0  0
   -3.0710   -0.2820    2.0560 H   0  0  0  0  0  0  0  0  0  0  0  0
   -3.4420    1.1920    1.1380 H   0  0  0  0  0  0  0  0  0  0  0  0
    1.1800    2.7530    1.9230 H   0  0  0  0  0  0  0  0  0  0  0  0
    1.3080    1.1010    2.5200 H   0  0  0  0  0  0  0  0  0  0  0  0
    3.0460   -1.2220   -1.6050 H   0  0  0  0  0  0  0  0  0  0  0  0
    2.4770    0.3450   -2.1640 H   0  0  0  0  0  0  0  0  0  0  0  0
    1.7840   -1.1510    1.8830 H   0  0  0  0  0  0  0  0  0  0  0  0
    3.4310   -0.9990    1.2930 H   0  0  0  0  0  0  0  0  0  0  0  0
    2.3580   -2.1720    0.5710 H   0  0  0  0  0  0  0  0  0  0  0  0
   -1.5740   -1.1600   -2.4280 H   0  0  0  0  0  0  0  0  0  0  0  0
   -1.5260   -2.8690   -2.0210 H   0  0  0  0  0  0  0  0  0  0  0  0
   -1.1670   -2.7880    1.0650 H   0  0  0  0  0  0  0  0  0  0  0  0
   -2.3450   -3.7400    0.1830 H   0  0  0  0  0  0  0  0  0  0  0  0
   -2.8630   -2.6690    1.4790 H   0  0  0  0  0  0  0  0  0  0  0  0
   -4.9710   -1.2180    1.1470 H   0  0  0  0  0  0  0  0  0  0  0  0
   -5.1910    0.1310    0.0370 H   0  0  0  0  0  0  0  0  0  0  0  0
    3.6280    2.8440    0.9480 H   0  0  0  0  0  0  0  0  0  0  0  0
    3.7940    1.3430    1.8650 H   0  0  0  0  0  0  0  0  0  0  0  0
   -3.8330    0.1050   -2.2880 H   0  0  0  0  0  0  0  0  0  0  0  0
   -5.3480   -0.8000   -2.2640 H   0  0  0  0  0  0  0  0  0  0  0  0
   -3.9050   -1.5330   -2.9610 H   0  0  0  0  0  0  0  0  0  0  0  0
   -4.1460   -3.2870   -1.4610 H   0  0  0  0  0  0  0  0  0  0  0  0
  1  2  1  0  0  0  0
  1  4  1  0  0  0  0
  1 23  1  0  0  0  0
  1  3  1  0  0  0  0
  2  5  1  0  0  0  0
  2  6  1  0  0  0  0
  2 24  1  0  0  0  0
  3  7  1  0  0  0  0
  3  8  1  0  0  0  0
  3 25  1  0  0  0  0
  4  9  1  0  0  0  0
  4 28  1  0  0  0  0
  4 27  1  0  0  0  0
  5 10  1  0  0  0  0
  5 12  1  0  0  0  0
  5 11  1  0  0  0  0
  6 30  1  0  0  0  0
  6 13  1  0  0  0  0
  6 29  1  0  0  0  0
  7 14  1  0  0  0  0
  7 15  1  0  0  0  0
  7 13  1  0  0  0  0
  8 32  1  0  0  0  0
  8 31  1  0  0  0  0
  8 16  1  0  0  0  0
  9 33  1  0  0  0  0
  9 34  1  0  0  0  0
  9 10  1  0  0  0  0
 10 26  1  0  0  0  0
 10 17  1  0  0  0  0
 11 18  1  0  0  0  0
 11 35  1  0  0  0  0
 11 36  1  0  0  0  0
 12 38  1  0  0  0  0
 12 37  1  0  0  0  0
 12 39  1  0  0  0  0
 13 40  1  0  0  0  0
 13 41  1  0  0  0  0
 14 20  1  0  0  0  0
 14 16  1  0  0  0  0
 14 19  1  0  0  0  0
 15 42  1  0  0  0  0
 15 44  1  0  0  0  0
 15 43  1  0  0  0  0
 16 45  1  0  0  0  0
 16 46  1  0  0  0  0
 17 47  1  0  0  0  0
 17 48  1  0  0  0  0
 17 21  1  0  0  0  0
 18 21  1  0  0  0  0
 19 49  1  0  0  0  0
 19 50  1  0  0  0  0
 19 51  1  0  0  0  0
 20 52  1  0  0  0  0
 21 22  2  0  0  0  0
M  END
