decoy-665
 OpenBabel06062114513D

 19 19  0  0  0  0  0  0  0  0999 V2000
    0.1720    1.5400   -0.3690 C   0  0  0  0  0  0  0  0  0  0  0  0
    0.0690    0.1500   -0.1590 C   0  0  0  0  0  0  0  0  0  0  0  0
    1.4450    2.1440   -0.3950 C   0  0  0  0  0  0  0  0  0  0  0  0
   -0.9490    2.2860   -0.6050 O   0  0  0  0  0  0  0  0  0  0  0  0
    1.2230   -0.6270    0.0540 C   0  0  0  0  0  0  0  0  0  0  0  0
    2.6030    1.3730   -0.1820 C   0  0  0  0  0  0  0  0  0  0  0  0
   -1.5360    2.8320    0.5930 C   0  0  0  0  0  0  0  0  0  0  0  0
    2.4970   -0.0150    0.0450 C   0  0  0  0  0  0  0  0  0  0  0  0
    1.0250   -2.4570    0.3370 Br  0  0  0  0  0  0  0  0  0  0  0  0
    4.2650    2.2140   -0.2120 Br  0  0  0  0  0  0  0  0  0  0  0  0
   -2.7340    3.6220    0.2730 C   0  0  0  0  0  0  0  0  0  0  0  0
    3.6290   -0.7370    0.2470 O   0  0  0  0  0  0  0  0  0  0  0  0
   -3.4280    4.2180    1.2680 O   0  0  0  0  0  0  0  0  0  0  0  0
   -3.1720    3.7740   -0.9970 O   0  0  0  0  0  0  0  0  0  0  0  0
   -0.8520   -0.2940   -0.1590 H   0  0  0  0  0  0  0  0  0  0  0  0
    1.5260    3.1490   -0.5660 H   0  0  0  0  0  0  0  0  0  0  0  0
   -1.8320    2.0300    1.2750 H   0  0  0  0  0  0  0  0  0  0  0  0
   -0.8250    3.4890    1.1030 H   0  0  0  0  0  0  0  0  0  0  0  0
    3.3450   -1.6620    0.3950 H   0  0  0  0  0  0  0  0  0  0  0  0
  1  2  2  0  0  0  0
  1  3  1  0  0  0  0
  1  4  1  0  0  0  0
  2 15  1  0  0  0  0
  2  5  1  0  0  0  0
  3  6  2  0  0  0  0
  3 16  1  0  0  0  0
  4  7  1  0  0  0  0
  5  9  1  0  0  0  0
  5  8  2  0  0  0  0
  6  8  1  0  0  0  0
  6 10  1  0  0  0  0
  7 18  1  0  0  0  0
  7 17  1  0  0  0  0
  7 11  1  0  0  0  0
  8 12  1  0  0  0  0
 11 13  1  0  0  0  0
 11 14  2  0  0  0  0
 12 19  1  0  0  0  0
M  END
