decoy-101
 OpenBabel06062114503D

 40 42  0  0  0  0  0  0  0  0999 V2000
   -0.1780    1.3070   -0.0810 C   0  0  0  0  0  0  0  0  0  0  0  0
   -0.0840   -0.0880   -0.3360 C   0  0  0  0  0  0  0  0  0  0  0  0
    0.8400    2.1870   -0.3940 C   0  0  0  0  0  0  0  0  0  0  0  0
   -1.3600    1.8140    0.5120 C   0  0  0  0  0  0  0  0  0  0  0  0
   -1.1450   -0.9440    0.0190 C   0  0  0  0  0  0  0  0  0  0  0  0
    0.9980   -0.6530   -0.9350 O   0  0  0  0  0  0  0  0  0  0  0  0
    2.0830    1.9330   -0.0340 N   0  0  0  0  0  0  0  0  0  0  0  0
   -2.4160    0.9530    0.8600 C   0  0  0  0  0  0  0  0  0  0  0  0
   -2.3080   -0.4270    0.6160 C   0  0  0  0  0  0  0  0  0  0  0  0
    3.2410    2.6220   -0.1800 C   0  0  0  0  0  0  0  0  0  0  0  0
    4.4080    2.0270    0.3440 C   0  0  0  0  0  0  0  0  0  0  0  0
    3.3500    3.8800   -0.8160 C   0  0  0  0  0  0  0  0  0  0  0  0
    5.6540    2.6710    0.2370 C   0  0  0  0  0  0  0  0  0  0  0  0
    4.5970    4.5240   -0.9230 C   0  0  0  0  0  0  0  0  0  0  0  0
    5.7650    3.9260   -0.3970 C   0  0  0  0  0  0  0  0  0  0  0  0
    7.0020    4.4760   -0.4560 N   0  0  0  0  0  0  0  0  0  0  0  0
    7.4550    5.6060   -0.9630 C   0  0  0  0  0  0  0  0  0  0  0  0
    8.8030    5.9090   -0.9150 C   0  0  0  0  0  0  0  0  0  0  0  0
    9.5640    5.8040    0.2800 C   0  0  0  0  0  0  0  0  0  0  0  0
    9.4470    6.3450   -2.0980 C   0  0  0  0  0  0  0  0  0  0  0  0
   10.9400    6.1100    0.2700 C   0  0  0  0  0  0  0  0  0  0  0  0
    9.0190    5.4290    1.4680 O   0  0  0  0  0  0  0  0  0  0  0  0
   10.8190    6.6520   -2.0990 C   0  0  0  0  0  0  0  0  0  0  0  0
   11.5670    6.5310   -0.9150 C   0  0  0  0  0  0  0  0  0  0  0  0
    0.6120    3.0440   -0.8400 H   0  0  0  0  0  0  0  0  0  0  0  0
   -1.4590    2.8150    0.7060 H   0  0  0  0  0  0  0  0  0  0  0  0
   -1.0770   -1.9480   -0.1630 H   0  0  0  0  0  0  0  0  0  0  0  0
    1.4670    0.0760   -1.3900 H   0  0  0  0  0  0  0  0  0  0  0  0
   -3.2630    1.3300    1.2920 H   0  0  0  0  0  0  0  0  0  0  0  0
   -3.0760   -1.0530    0.8690 H   0  0  0  0  0  0  0  0  0  0  0  0
    4.3580    1.1170    0.8100 H   0  0  0  0  0  0  0  0  0  0  0  0
    2.5270    4.3400   -1.2080 H   0  0  0  0  0  0  0  0  0  0  0  0
    6.4830    2.2150    0.6280 H   0  0  0  0  0  0  0  0  0  0  0  0
    4.6390    5.4320   -1.3890 H   0  0  0  0  0  0  0  0  0  0  0  0
    6.8420    6.2230   -1.4400 H   0  0  0  0  0  0  0  0  0  0  0  0
    8.9240    6.4340   -2.9750 H   0  0  0  0  0  0  0  0  0  0  0  0
   11.4890    6.0320    1.1300 H   0  0  0  0  0  0  0  0  0  0  0  0
    8.0540    5.5690    1.3790 H   0  0  0  0  0  0  0  0  0  0  0  0
   11.2740    6.9610   -2.9610 H   0  0  0  0  0  0  0  0  0  0  0  0
   12.5650    6.7540   -0.9160 H   0  0  0  0  0  0  0  0  0  0  0  0
  1  4  2  0  0  0  0
  1  2  1  0  0  0  0
  1  3  1  0  0  0  0
  2  5  2  0  0  0  0
  2  6  1  0  0  0  0
  3  7  2  0  0  0  0
  3 25  1  0  0  0  0
  4 26  1  0  0  0  0
  4  8  1  0  0  0  0
  5  9  1  0  0  0  0
  5 27  1  0  0  0  0
  6 28  1  0  0  0  0
  7 10  1  0  0  0  0
  8 29  1  0  0  0  0
  8  9  2  0  0  0  0
  9 30  1  0  0  0  0
 10 11  2  0  0  0  0
 10 12  1  0  0  0  0
 11 31  1  0  0  0  0
 11 13  1  0  0  0  0
 12 14  2  0  0  0  0
 12 32  1  0  0  0  0
 13 33  1  0  0  0  0
 13 15  2  0  0  0  0
 14 15  1  0  0  0  0
 14 34  1  0  0  0  0
 15 16  1  0  0  0  0
 16 17  2  0  0  0  0
 17 18  1  0  0  0  0
 17 35  1  0  0  0  0
 18 19  2  0  0  0  0
 18 20  1  0  0  0  0
 19 22  1  0  0  0  0
 19 21  1  0  0  0  0
 20 23  2  0  0  0  0
 20 36  1  0  0  0  0
 21 37  1  0  0  0  0
 21 24  2  0  0  0  0
 22 38  1  0  0  0  0
 23 24  1  0  0  0  0
 23 39  1  0  0  0  0
 24 40  1  0  0  0  0
M  END
