decoy-216
 OpenBabel06062114513D

 36 39  0  0  0  0  0  0  0  0999 V2000
    0.0400    1.5260    0.0600 N   0  0  0  0  0  0  0  0  0  0  0  0
    0.0840    0.1660    0.2390 C   0  0  0  0  0  0  0  0  0  0  0  0
    1.2630    2.1940   -0.1550 C   0  0  0  0  0  0  0  0  0  0  0  0
   -1.2730    2.1580    0.0670 C   0  0  0  0  0  0  0  0  0  0  0  0
    1.2300   -0.5400    0.1680 N   0  0  0  0  0  0  0  0  0  0  0  0
   -0.9480   -0.6590    0.4810 N   0  0  0  0  0  0  0  0  0  0  0  0
    2.4730    1.4310   -0.2490 C   0  0  0  0  0  0  0  0  0  0  0  0
    1.3800    3.6090   -0.2520 C   0  0  0  0  0  0  0  0  0  0  0  0
   -1.8460    2.2540    1.4390 C   0  0  0  0  0  0  0  0  0  0  0  0
    2.4010    0.0410   -0.0850 C   0  0  0  0  0  0  0  0  0  0  0  0
    0.9910   -1.9310    0.3770 C   0  0  0  0  0  0  0  0  0  0  0  0
   -0.5340   -2.0030    0.6000 C   0  0  0  0  0  0  0  0  0  0  0  0
    3.7130    2.0790   -0.4770 C   0  0  0  0  0  0  0  0  0  0  0  0
    2.6160    4.2390   -0.4750 C   0  0  0  0  0  0  0  0  0  0  0  0
   -1.1920    3.0200    2.4340 C   0  0  0  0  0  0  0  0  0  0  0  0
   -3.0490    1.5900    1.7800 C   0  0  0  0  0  0  0  0  0  0  0  0
    3.4070   -0.6560   -0.1550 O   0  0  0  0  0  0  0  0  0  0  0  0
    3.7820    3.4740   -0.5960 C   0  0  0  0  0  0  0  0  0  0  0  0
   -1.7210    3.1130    3.7340 C   0  0  0  0  0  0  0  0  0  0  0  0
   -3.5790    1.6820    3.0800 C   0  0  0  0  0  0  0  0  0  0  0  0
   -2.9150    2.4440    4.0600 C   0  0  0  0  0  0  0  0  0  0  0  0
   -3.4060    2.5290    5.2660 F   0  0  0  0  0  0  0  0  0  0  0  0
   -1.2770    3.1560   -0.3620 H   0  0  0  0  0  0  0  0  0  0  0  0
   -1.9370    1.5890   -0.5920 H   0  0  0  0  0  0  0  0  0  0  0  0
    0.5750    4.2220   -0.1450 H   0  0  0  0  0  0  0  0  0  0  0  0
    1.2860   -2.5120   -0.5010 H   0  0  0  0  0  0  0  0  0  0  0  0
    1.5330   -2.2900    1.2560 H   0  0  0  0  0  0  0  0  0  0  0  0
   -0.7800   -2.3830    1.5940 H   0  0  0  0  0  0  0  0  0  0  0  0
   -1.0250   -2.6130   -0.1620 H   0  0  0  0  0  0  0  0  0  0  0  0
    4.5830    1.5440   -0.5520 H   0  0  0  0  0  0  0  0  0  0  0  0
    2.6670    5.2580   -0.5430 H   0  0  0  0  0  0  0  0  0  0  0  0
   -0.3240    3.5140    2.2190 H   0  0  0  0  0  0  0  0  0  0  0  0
   -3.5470    1.0300    1.0840 H   0  0  0  0  0  0  0  0  0  0  0  0
    4.6820    3.9330   -0.7560 H   0  0  0  0  0  0  0  0  0  0  0  0
   -1.2350    3.6690    4.4410 H   0  0  0  0  0  0  0  0  0  0  0  0
   -4.4470    1.1940    3.3100 H   0  0  0  0  0  0  0  0  0  0  0  0
  1  4  1  0  0  0  0
  1  2  1  0  0  0  0
  1  3  1  0  0  0  0
  2  6  2  0  0  0  0
  2  5  1  0  0  0  0
  3  7  2  0  0  0  0
  3  8  1  0  0  0  0
  4  9  1  0  0  0  0
  4 23  1  0  0  0  0
  4 24  1  0  0  0  0
  5 11  1  0  0  0  0
  5 10  1  0  0  0  0
  6 12  1  0  0  0  0
  7 10  1  0  0  0  0
  7 13  1  0  0  0  0
  8 25  1  0  0  0  0
  8 14  2  0  0  0  0
  9 16  2  0  0  0  0
  9 15  1  0  0  0  0
 10 17  2  0  0  0  0
 11 12  1  0  0  0  0
 11 27  1  0  0  0  0
 11 26  1  0  0  0  0
 12 28  1  0  0  0  0
 12 29  1  0  0  0  0
 13 18  2  0  0  0  0
 13 30  1  0  0  0  0
 14 18  1  0  0  0  0
 14 31  1  0  0  0  0
 15 19  2  0  0  0  0
 15 32  1  0  0  0  0
 16 20  1  0  0  0  0
 16 33  1  0  0  0  0
 18 34  1  0  0  0  0
 19 21  1  0  0  0  0
 19 35  1  0  0  0  0
 20 36  1  0  0  0  0
 20 21  2  0  0  0  0
 21 22  1  0  0  0  0
M  END
