decoy-225
 OpenBabel06062114513D

 66 68  0  0  0  0  0  0  0  0999 V2000
    1.0860    0.2620    1.0520 C   0  0  0  0  0  0  0  0  0  0  0  0
    0.5470   -1.1900    0.8450 C   0  0  0  0  0  0  0  0  0  0  0  0
    2.5120    0.2240    0.8110 O   0  0  0  0  0  0  0  0  0  0  0  0
    0.3240    1.2280    0.0900 C   0  0  0  0  0  0  0  0  0  0  0  0
   -0.8900   -1.2400    0.9810 O   0  0  0  0  0  0  0  0  0  0  0  0
    1.1380   -2.2120    1.8480 C   0  0  0  0  0  0  0  0  0  0  0  0
    3.3660    1.2540    1.3590 C   0  0  0  0  0  0  0  0  0  0  0  0
   -1.2140    1.0700    0.2360 C   0  0  0  0  0  0  0  0  0  0  0  0
    0.6400    2.5960    0.3430 O   0  0  0  0  0  0  0  0  0  0  0  0
   -1.6420   -0.4110    0.0710 C   0  0  0  0  0  0  0  0  0  0  0  0
    0.6160   -3.5130    1.6020 O   0  0  0  0  0  0  0  0  0  0  0  0
    3.2350    1.4200    2.7890 O   0  0  0  0  0  0  0  0  0  0  0  0
    4.8450    0.9630    0.9870 C   0  0  0  0  0  0  0  0  0  0  0  0
   -1.9020    1.8810   -0.7160 O   0  0  0  0  0  0  0  0  0  0  0  0
   -1.5260   -0.8050   -1.3160 O   0  0  0  0  0  0  0  0  0  0  0  0
    3.6700    0.3100    3.6070 C   0  0  0  0  0  0  0  0  0  0  0  0
    5.3900   -0.2420    1.7990 C   0  0  0  0  0  0  0  0  0  0  0  0
    4.9690    0.7120   -0.4120 O   0  0  0  0  0  0  0  0  0  0  0  0
   -1.8310   -2.1630   -1.7110 C   0  0  0  0  0  0  0  0  0  0  0  0
    5.1630   -0.0330    3.3200 C   0  0  0  0  0  0  0  0  0  0  0  0
    3.4170    0.6880    5.0860 C   0  0  0  0  0  0  0  0  0  0  0  0
    6.7830   -0.4140    1.5430 O   0  0  0  0  0  0  0  0  0  0  0  0
   -1.1080   -2.4190   -3.0740 C   0  0  0  0  0  0  0  0  0  0  0  0
   -3.3610   -2.4270   -1.8850 C   0  0  0  0  0  0  0  0  0  0  0  0
    5.5610   -1.2150    4.0150 O   0  0  0  0  0  0  0  0  0  0  0  0
    2.0370    0.9740    5.2960 O   0  0  0  0  0  0  0  0  0  0  0  0
   -1.4170   -3.7340   -3.5890 O   0  0  0  0  0  0  0  0  0  0  0  0
    0.4340   -2.3150   -2.9740 C   0  0  0  0  0  0  0  0  0  0  0  0
   -3.6270   -3.8190   -2.5200 C   0  0  0  0  0  0  0  0  0  0  0  0
   -4.0580   -2.3840   -0.6420 O   0  0  0  0  0  0  0  0  0  0  0  0
   -2.8130   -3.9960   -3.8260 C   0  0  0  0  0  0  0  0  0  0  0  0
    1.0350   -2.5560   -4.2420 O   0  0  0  0  0  0  0  0  0  0  0  0
   -5.0170   -4.0000   -2.7860 O   0  0  0  0  0  0  0  0  0  0  0  0
   -3.3060   -3.1730   -4.8850 O   0  0  0  0  0  0  0  0  0  0  0  0
    0.8770    0.5550    2.0850 H   0  0  0  0  0  0  0  0  0  0  0  0
    0.8260   -1.5290   -0.1550 H   0  0  0  0  0  0  0  0  0  0  0  0
    0.6080    1.0070   -0.9430 H   0  0  0  0  0  0  0  0  0  0  0  0
    2.2240   -2.2610    1.7450 H   0  0  0  0  0  0  0  0  0  0  0  0
    0.8900   -1.9240    2.8720 H   0  0  0  0  0  0  0  0  0  0  0  0
    3.1100    2.2100    0.9040 H   0  0  0  0  0  0  0  0  0  0  0  0
   -1.5100    1.4080    1.2340 H   0  0  0  0  0  0  0  0  0  0  0  0
    1.5180    2.7370   -0.0660 H   0  0  0  0  0  0  0  0  0  0  0  0
   -2.6860   -0.4710    0.3740 H   0  0  0  0  0  0  0  0  0  0  0  0
    1.0420   -4.0870    2.2730 H   0  0  0  0  0  0  0  0  0  0  0  0
    5.4470    1.8460    1.2210 H   0  0  0  0  0  0  0  0  0  0  0  0
   -1.6360    2.8010   -0.5080 H   0  0  0  0  0  0  0  0  0  0  0  0
    3.0580   -0.5660    3.3830 H   0  0  0  0  0  0  0  0  0  0  0  0
    4.8760   -1.1540    1.4800 H   0  0  0  0  0  0  0  0  0  0  0  0
    4.6480    1.5300   -0.8470 H   0  0  0  0  0  0  0  0  0  0  0  0
   -1.4320   -2.8750   -0.9800 H   0  0  0  0  0  0  0  0  0  0  0  0
    5.7960    0.7920    3.6610 H   0  0  0  0  0  0  0  0  0  0  0  0
    3.6970   -0.1360    5.7440 H   0  0  0  0  0  0  0  0  0  0  0  0
    4.0010    1.5700    5.3570 H   0  0  0  0  0  0  0  0  0  0  0  0
    6.8460   -0.5890    0.5800 H   0  0  0  0  0  0  0  0  0  0  0  0
   -1.4360   -1.6630   -3.7970 H   0  0  0  0  0  0  0  0  0  0  0  0
   -3.7870   -1.6540   -2.5320 H   0  0  0  0  0  0  0  0  0  0  0  0
    5.4870   -0.9930    4.9660 H   0  0  0  0  0  0  0  0  0  0  0  0
    1.9690    1.2020    6.2470 H   0  0  0  0  0  0  0  0  0  0  0  0
    0.7270   -1.3160   -2.6480 H   0  0  0  0  0  0  0  0  0  0  0  0
    0.8170   -3.0490   -2.2610 H   0  0  0  0  0  0  0  0  0  0  0  0
   -3.3190   -4.5970   -1.8150 H   0  0  0  0  0  0  0  0  0  0  0  0
   -4.1560   -1.4330   -0.4350 H   0  0  0  0  0  0  0  0  0  0  0  0
   -2.8990   -5.0330   -4.1560 H   0  0  0  0  0  0  0  0  0  0  0  0
    1.9990   -2.4680   -4.0840 H   0  0  0  0  0  0  0  0  0  0  0  0
   -5.4560   -3.9360   -1.9120 H   0  0  0  0  0  0  0  0  0  0  0  0
   -4.2300   -3.4670   -5.0280 H   0  0  0  0  0  0  0  0  0  0  0  0
  1  4  1  0  0  0  0
  1 35  1  0  0  0  0
  1  2  1  0  0  0  0
  1  3  1  0  0  0  0
  2  5  1  0  0  0  0
  2  6  1  0  0  0  0
  2 36  1  0  0  0  0
  3  7  1  0  0  0  0
  4  8  1  0  0  0  0
  4  9  1  0  0  0  0
  4 37  1  0  0  0  0
  5 10  1  0  0  0  0
  6 39  1  0  0  0  0
  6 11  1  0  0  0  0
  6 38  1  0  0  0  0
  7 13  1  0  0  0  0
  7 12  1  0  0  0  0
  7 40  1  0  0  0  0
  8 10  1  0  0  0  0
  8 41  1  0  0  0  0
  8 14  1  0  0  0  0
  9 42  1  0  0  0  0
 10 43  1  0  0  0  0
 10 15  1  0  0  0  0
 11 44  1  0  0  0  0
 12 16  1  0  0  0  0
 13 45  1  0  0  0  0
 13 17  1  0  0  0  0
 13 18  1  0  0  0  0
 14 46  1  0  0  0  0
 15 19  1  0  0  0  0
 16 20  1  0  0  0  0
 16 21  1  0  0  0  0
 16 47  1  0  0  0  0
 17 20  1  0  0  0  0
 17 22  1  0  0  0  0
 17 48  1  0  0  0  0
 18 49  1  0  0  0  0
 19 23  1  0  0  0  0
 19 50  1  0  0  0  0
 19 24  1  0  0  0  0
 20 51  1  0  0  0  0
 20 25  1  0  0  0  0
 21 26  1  0  0  0  0
 21 53  1  0  0  0  0
 21 52  1  0  0  0  0
 22 54  1  0  0  0  0
 23 55  1  0  0  0  0
 23 28  1  0  0  0  0
 23 27  1  0  0  0  0
 24 29  1  0  0  0  0
 24 30  1  0  0  0  0
 24 56  1  0  0  0  0
 25 57  1  0  0  0  0
 26 58  1  0  0  0  0
 27 31  1  0  0  0  0
 28 59  1  0  0  0  0
 28 60  1  0  0  0  0
 28 32  1  0  0  0  0
 29 31  1  0  0  0  0
 29 61  1  0  0  0  0
 29 33  1  0  0  0  0
 30 62  1  0  0  0  0
 31 63  1  0  0  0  0
 31 34  1  0  0  0  0
 32 64  1  0  0  0  0
 33 65  1  0  0  0  0
 34 66  1  0  0  0  0
M  END
