decoy-513
 OpenBabel06062114513D

 36 36  0  0  0  0  0  0  0  0999 V2000
   -0.0320    1.5500   -0.4590 C   0  0  0  0  0  0  0  0  0  0  0  0
   -0.2610    0.0670   -0.0540 C   0  0  0  0  0  0  0  0  0  0  0  0
    1.3700    2.1220   -0.1100 C   0  0  0  0  0  0  0  0  0  0  0  0
   -0.0460   -0.1310    1.3920 C   0  0  0  0  0  0  0  0  0  0  0  0
    1.4740    2.4820    1.3250 C   0  0  0  0  0  0  0  0  0  0  0  0
   -0.2420   -1.4840    1.9470 C   0  0  0  0  0  0  0  0  0  0  0  0
    2.8380    2.6700    1.8720 C   0  0  0  0  0  0  0  0  0  0  0  0
    0.0060   -1.5020    3.4820 C   0  0  0  0  0  0  0  0  0  0  0  0
    2.8860    2.5250    3.4200 C   0  0  0  0  0  0  0  0  0  0  0  0
    1.4100   -1.0080    3.9310 C   0  0  0  0  0  0  0  0  0  0  0  0
    2.8580    1.0620    3.9490 C   0  0  0  0  0  0  0  0  0  0  0  0
    1.4990    0.4730    3.9200 C   0  0  0  0  0  0  0  0  0  0  0  0
   -0.1700    1.6210   -1.5410 H   0  0  0  0  0  0  0  0  0  0  0  0
   -0.8000    2.1730    0.0070 H   0  0  0  0  0  0  0  0  0  0  0  0
   -1.2850   -0.2170   -0.3120 H   0  0  0  0  0  0  0  0  0  0  0  0
    0.4260   -0.5720   -0.6150 H   0  0  0  0  0  0  0  0  0  0  0  0
    2.1280    1.3840   -0.3880 H   0  0  0  0  0  0  0  0  0  0  0  0
    1.5470    3.0260   -0.6990 H   0  0  0  0  0  0  0  0  0  0  0  0
    0.9260    0.1190    1.5760 H   0  0  0  0  0  0  0  0  0  0  0  0
    0.9470    3.3450    1.4780 H   0  0  0  0  0  0  0  0  0  0  0  0
   -1.2650   -1.8140    1.7490 H   0  0  0  0  0  0  0  0  0  0  0  0
    0.4470   -2.1800    1.4610 H   0  0  0  0  0  0  0  0  0  0  0  0
    3.5420    1.9590    1.4310 H   0  0  0  0  0  0  0  0  0  0  0  0
    3.1670    3.6760    1.5980 H   0  0  0  0  0  0  0  0  0  0  0  0
   -0.7620   -0.9020    3.9780 H   0  0  0  0  0  0  0  0  0  0  0  0
   -0.1180   -2.5340    3.8230 H   0  0  0  0  0  0  0  0  0  0  0  0
    3.8220    2.9760    3.7610 H   0  0  0  0  0  0  0  0  0  0  0  0
    2.0690    3.0950    3.8700 H   0  0  0  0  0  0  0  0  0  0  0  0
    1.6020   -1.3500    4.9510 H   0  0  0  0  0  0  0  0  0  0  0  0
    2.1630   -1.4550    3.2770 H   0  0  0  0  0  0  0  0  0  0  0  0
    3.5610    0.4640    3.3620 H   0  0  0  0  0  0  0  0  0  0  0  0
    3.2000    1.0520    4.9870 H   0  0  0  0  0  0  0  0  0  0  0  0
    1.0320    0.8040    3.0850 H   0  0  0  0  0  0  0  0  0  0  0  0
   -0.6540    0.5160    1.8990 H   0  0  0  0  0  0  0  0  0  0  0  0
    1.0200    1.7530    1.8610 H   0  0  0  0  0  0  0  0  0  0  0  0
    0.9780    0.8310    4.7230 H   0  0  0  0  0  0  0  0  0  0  0  0
  1  3  1  0  0  0  0
  1  2  1  0  0  0  0
  1 14  1  0  0  0  0
  1 13  1  0  0  0  0
  2  4  1  0  0  0  0
  2 15  1  0  0  0  0
  2 16  1  0  0  0  0
  3  5  1  0  0  0  0
  3 17  1  0  0  0  0
  3 18  1  0  0  0  0
  4 19  1  0  0  0  0
  4 34  1  0  0  0  0
  4  6  1  0  0  0  0
  5 20  1  0  0  0  0
  5 35  1  0  0  0  0
  5  7  1  0  0  0  0
  6  8  1  0  0  0  0
  6 21  1  0  0  0  0
  6 22  1  0  0  0  0
  7  9  1  0  0  0  0
  7 23  1  0  0  0  0
  7 24  1  0  0  0  0
  8 26  1  0  0  0  0
  8 10  1  0  0  0  0
  8 25  1  0  0  0  0
  9 27  1  0  0  0  0
  9 28  1  0  0  0  0
  9 11  1  0  0  0  0
 10 29  1  0  0  0  0
 10 12  1  0  0  0  0
 10 30  1  0  0  0  0
 11 32  1  0  0  0  0
 11 12  1  0  0  0  0
 11 31  1  0  0  0  0
 12 36  1  0  0  0  0
 12 33  1  0  0  0  0
M  END
