decoy-80
 OpenBabel06062114503D

 28 27  0  0  0  0  0  0  0  0999 V2000
   -6.1690    0.0380   -0.4860 C   0  0  0  0  0  0  0  0  0  0  0  0
   -6.0190    1.1830    0.5090 *   0  0  0  0  0  0  0  0  0  0  0  0
   -7.4670   -0.8350   -0.4830 C   0  0  0  0  0  0  0  0  0  0  0  0
   -4.7030    1.8780    0.2350 C   0  0  0  0  0  0  0  0  0  0  0  0
   -5.9930    0.6730    1.9300 C   0  0  0  0  0  0  0  0  0  0  0  0
   -7.1240    2.2000    0.3690 C   0  0  0  0  0  0  0  0  0  0  0  0
   -8.5670   -0.0620   -0.9890 O   0  0  0  0  0  0  0  0  0  0  0  0
   -7.2930   -2.1110   -1.3500 C   0  0  0  0  0  0  0  0  0  0  0  0
   -9.8950   -0.3400   -0.9100 C   0  0  0  0  0  0  0  0  0  0  0  0
  -10.7680    0.5150   -1.4600 N   0  0  0  0  0  0  0  0  0  0  0  0
  -10.3650   -1.4400   -0.2790 O   0  0  0  0  0  0  0  0  0  0  0  0
   -6.0670    0.4320   -1.5030 H   0  0  0  0  0  0  0  0  0  0  0  0
   -5.3250   -0.6450   -0.3410 H   0  0  0  0  0  0  0  0  0  0  0  0
   -7.6870   -1.1520    0.5380 H   0  0  0  0  0  0  0  0  0  0  0  0
   -3.8580    1.1890    0.3350 H   0  0  0  0  0  0  0  0  0  0  0  0
   -4.5280    2.7070    0.9270 H   0  0  0  0  0  0  0  0  0  0  0  0
   -4.6720    2.2900   -0.7780 H   0  0  0  0  0  0  0  0  0  0  0  0
   -6.9480    0.2350    2.2240 H   0  0  0  0  0  0  0  0  0  0  0  0
   -5.7840    1.4790    2.6410 H   0  0  0  0  0  0  0  0  0  0  0  0
   -5.2220   -0.0910    2.0650 H   0  0  0  0  0  0  0  0  0  0  0  0
   -7.2180    2.5430   -0.6650 H   0  0  0  0  0  0  0  0  0  0  0  0
   -6.9420    3.0800    0.9930 H   0  0  0  0  0  0  0  0  0  0  0  0
   -8.0890    1.7930    0.6760 H   0  0  0  0  0  0  0  0  0  0  0  0
   -7.0870   -1.8400   -2.3880 H   0  0  0  0  0  0  0  0  0  0  0  0
   -8.1990   -2.7180   -1.3230 H   0  0  0  0  0  0  0  0  0  0  0  0
   -6.4680   -2.7190   -0.9740 H   0  0  0  0  0  0  0  0  0  0  0  0
  -11.7200    0.3380   -1.4080 H   0  0  0  0  0  0  0  0  0  0  0  0
  -10.4490    1.3130   -1.9100 H   0  0  0  0  0  0  0  0  0  0  0  0
  1  3  1  0  0  0  0
  1 13  1  0  0  0  0
  1  2  1  0  0  0  0
  1 12  1  0  0  0  0
  2  5  1  0  0  0  0
  2  4  1  0  0  0  0
  2  6  1  0  0  0  0
  3 14  1  0  0  0  0
  3  7  1  0  0  0  0
  3  8  1  0  0  0  0
  4 15  1  0  0  0  0
  4 16  1  0  0  0  0
  4 17  1  0  0  0  0
  5 20  1  0  0  0  0
  5 18  1  0  0  0  0
  5 19  1  0  0  0  0
  6 23  1  0  0  0  0
  6 22  1  0  0  0  0
  6 21  1  0  0  0  0
  7  9  1  0  0  0  0
  8 25  1  0  0  0  0
  8 26  1  0  0  0  0
  8 24  1  0  0  0  0
  9 11  2  0  0  0  0
  9 10  1  0  0  0  0
 10 27  1  0  0  0  0
 10 28  1  0  0  0  0
M  END
