decoy-5
 OpenBabel06062114503D

 31 33  0  0  0  0  0  0  0  0999 V2000
    1.5870    1.4070    1.0890 C   0  0  0  0  0  0  0  0  0  0  0  0
    0.8350    0.6320    1.9900 C   0  0  0  0  0  0  0  0  0  0  0  0
    2.8940    1.0200    0.6600 C   0  0  0  0  0  0  0  0  0  0  0  0
    1.0260    2.5950    0.5510 C   0  0  0  0  0  0  0  0  0  0  0  0
   -0.5260    0.4280    1.8080 C   0  0  0  0  0  0  0  0  0  0  0  0
    1.3500   -0.0320    2.9670 N   0  0  0  0  0  0  0  0  0  0  0  0
    3.5950   -0.0590    1.1310 N   0  0  0  0  0  0  0  0  0  0  0  0
    3.5540    1.7760   -0.3340 C   0  0  0  0  0  0  0  0  0  0  0  0
    1.7080    3.3550   -0.4170 C   0  0  0  0  0  0  0  0  0  0  0  0
   -0.9980   -0.3190    0.7030 C   0  0  0  0  0  0  0  0  0  0  0  0
   -1.4610    0.9720    2.7200 C   0  0  0  0  0  0  0  0  0  0  0  0
    2.6670   -0.1290    3.3980 C   0  0  0  0  0  0  0  0  0  0  0  0
    3.5200   -0.6200    2.3290 C   0  0  0  0  0  0  0  0  0  0  0  0
    2.9690    2.9350   -0.8680 C   0  0  0  0  0  0  0  0  0  0  0  0
    1.0060    4.7600   -1.0490 Cl  0  0  0  0  0  0  0  0  0  0  0  0
   -2.3790   -0.5160    0.5140 C   0  0  0  0  0  0  0  0  0  0  0  0
   -2.8410    0.7740    2.5280 C   0  0  0  0  0  0  0  0  0  0  0  0
    3.1410    1.1260    3.8840 O   0  0  0  0  0  0  0  0  0  0  0  0
    4.2460   -1.5820    2.5320 O   0  0  0  0  0  0  0  0  0  0  0  0
   -3.3000    0.0310    1.4260 C   0  0  0  0  0  0  0  0  0  0  0  0
    0.1030    2.9140    0.8580 H   0  0  0  0  0  0  0  0  0  0  0  0
    4.2810   -0.4120    0.5420 H   0  0  0  0  0  0  0  0  0  0  0  0
    4.4840    1.5000   -0.6630 H   0  0  0  0  0  0  0  0  0  0  0  0
   -0.3410   -0.7230    0.0300 H   0  0  0  0  0  0  0  0  0  0  0  0
   -1.1450    1.5200    3.5250 H   0  0  0  0  0  0  0  0  0  0  0  0
    2.6800   -0.8220    4.2440 H   0  0  0  0  0  0  0  0  0  0  0  0
    3.4720    3.4750   -1.5770 H   0  0  0  0  0  0  0  0  0  0  0  0
   -2.7130   -1.0560   -0.2870 H   0  0  0  0  0  0  0  0  0  0  0  0
   -3.5120    1.1720    3.1900 H   0  0  0  0  0  0  0  0  0  0  0  0
    3.1000    1.7380    3.1200 H   0  0  0  0  0  0  0  0  0  0  0  0
   -4.3030   -0.1130    1.2870 H   0  0  0  0  0  0  0  0  0  0  0  0
  1  2  1  0  0  0  0
  1  3  2  0  0  0  0
  1  4  1  0  0  0  0
  2  6  2  0  0  0  0
  2  5  1  0  0  0  0
  3  7  1  0  0  0  0
  3  8  1  0  0  0  0
  4 21  1  0  0  0  0
  4  9  2  0  0  0  0
  5 11  2  0  0  0  0
  5 10  1  0  0  0  0
  6 12  1  0  0  0  0
  7 13  1  0  0  0  0
  7 22  1  0  0  0  0
  8 14  2  0  0  0  0
  8 23  1  0  0  0  0
  9 14  1  0  0  0  0
  9 15  1  0  0  0  0
 10 16  2  0  0  0  0
 10 24  1  0  0  0  0
 11 25  1  0  0  0  0
 11 17  1  0  0  0  0
 12 18  1  0  0  0  0
 12 26  1  0  0  0  0
 12 13  1  0  0  0  0
 13 19  2  0  0  0  0
 14 27  1  0  0  0  0
 16 20  1  0  0  0  0
 16 28  1  0  0  0  0
 17 29  1  0  0  0  0
 17 20  2  0  0  0  0
 18 30  1  0  0  0  0
 20 31  1  0  0  0  0
M  END
