decoy-353
 OpenBabel06062114513D

 45 46  0  0  0  0  0  0  0  0999 V2000
    0.1430    1.2100    1.1640 P   0  0  0  0  0  0  0  0  0  0  0  0
    0.5730   -0.2670    1.4810 O   0  0  0  0  0  0  0  0  0  0  0  0
    1.5070    2.0970    1.0660 C   0  0  0  0  0  0  0  0  0  0  0  0
   -0.5220    1.2340   -0.3300 C   0  0  0  0  0  0  0  0  0  0  0  0
   -0.8850    1.7390    2.3170 C   0  0  0  0  0  0  0  0  0  0  0  0
    1.1720   -0.5500    2.6210 N   0  0  0  0  0  0  0  0  0  0  0  0
    2.5620    1.5150    0.1740 C   0  0  0  0  0  0  0  0  0  0  0  0
    1.3060    3.5440    0.7490 C   0  0  0  0  0  0  0  0  0  0  0  0
   -0.9100   -0.0990   -0.8850 C   0  0  0  0  0  0  0  0  0  0  0  0
   -1.6010    2.2460   -0.5600 C   0  0  0  0  0  0  0  0  0  0  0  0
   -2.0320    0.8160    2.5900 C   0  0  0  0  0  0  0  0  0  0  0  0
   -0.2650    2.1640    3.6120 C   0  0  0  0  0  0  0  0  0  0  0  0
    0.8480   -1.6120    3.3700 C   0  0  0  0  0  0  0  0  0  0  0  0
    2.2310   -0.0280    3.1140 N   0  0  0  0  0  0  0  0  0  0  0  0
    1.7890   -1.6420    4.3880 C   0  0  0  0  0  0  0  0  0  0  0  0
   -0.1620   -2.5890    3.2890 C   0  0  0  0  0  0  0  0  0  0  0  0
    2.6240   -0.6230    4.1580 N   0  0  0  0  0  0  0  0  0  0  0  0
    1.7570   -2.6320    5.3850 C   0  0  0  0  0  0  0  0  0  0  0  0
   -0.2110   -3.5910    4.2820 C   0  0  0  0  0  0  0  0  0  0  0  0
    0.7420   -3.6110    5.3260 C   0  0  0  0  0  0  0  0  0  0  0  0
    3.4900    2.0820    0.2780 H   0  0  0  0  0  0  0  0  0  0  0  0
    2.7980    0.4830    0.4390 H   0  0  0  0  0  0  0  0  0  0  0  0
    2.2670    1.5390   -0.8770 H   0  0  0  0  0  0  0  0  0  0  0  0
    2.2290    4.0930    0.9470 H   0  0  0  0  0  0  0  0  0  0  0  0
    1.0440    3.6950   -0.3010 H   0  0  0  0  0  0  0  0  0  0  0  0
    0.5310    3.9980    1.3670 H   0  0  0  0  0  0  0  0  0  0  0  0
   -1.2950    0.0020   -1.9020 H   0  0  0  0  0  0  0  0  0  0  0  0
   -0.0400   -0.7560   -0.9460 H   0  0  0  0  0  0  0  0  0  0  0  0
   -1.6760   -0.5850   -0.2780 H   0  0  0  0  0  0  0  0  0  0  0  0
   -1.7360    2.3930   -1.6330 H   0  0  0  0  0  0  0  0  0  0  0  0
   -2.5580    1.9290   -0.1440 H   0  0  0  0  0  0  0  0  0  0  0  0
   -1.3550    3.2200   -0.1390 H   0  0  0  0  0  0  0  0  0  0  0  0
   -2.7760    1.3240    3.2070 H   0  0  0  0  0  0  0  0  0  0  0  0
   -2.5430    0.5030    1.6820 H   0  0  0  0  0  0  0  0  0  0  0  0
   -1.7100   -0.0820    3.1210 H   0  0  0  0  0  0  0  0  0  0  0  0
   -1.0010    2.7140    4.2030 H   0  0  0  0  0  0  0  0  0  0  0  0
    0.0700    1.3140    4.2080 H   0  0  0  0  0  0  0  0  0  0  0  0
    0.5810    2.8360    3.4710 H   0  0  0  0  0  0  0  0  0  0  0  0
   -0.8460   -2.5690    2.5310 H   0  0  0  0  0  0  0  0  0  0  0  0
    2.4580   -2.6450    6.1290 H   0  0  0  0  0  0  0  0  0  0  0  0
   -0.9390   -4.3070    4.2440 H   0  0  0  0  0  0  0  0  0  0  0  0
    0.7000   -4.3420    6.0390 H   0  0  0  0  0  0  0  0  0  0  0  0
    1.9090    2.0780    2.0050 H   0  0  0  0  0  0  0  0  0  0  0  0
    0.2360    1.5410   -0.9400 H   0  0  0  0  0  0  0  0  0  0  0  0
   -1.3010    2.5900    1.9340 H   0  0  0  0  0  0  0  0  0  0  0  0
  1  2  1  0  0  0  0
  1  5  1  0  0  0  0
  1  3  1  0  0  0  0
  1  4  1  0  0  0  0
  2  6  1  0  0  0  0
  3 43  1  0  0  0  0
  3  7  1  0  0  0  0
  3  8  1  0  0  0  0
  4  9  1  0  0  0  0
  4 10  1  0  0  0  0
  4 44  1  0  0  0  0
  5 11  1  0  0  0  0
  5 12  1  0  0  0  0
  5 45  1  0  0  0  0
  6 14  1  0  0  0  0
  6 13  1  0  0  0  0
  7 21  1  0  0  0  0
  7 22  1  0  0  0  0
  7 23  1  0  0  0  0
  8 24  1  0  0  0  0
  8 26  1  0  0  0  0
  8 25  1  0  0  0  0
  9 29  1  0  0  0  0
  9 27  1  0  0  0  0
  9 28  1  0  0  0  0
 10 31  1  0  0  0  0
 10 32  1  0  0  0  0
 10 30  1  0  0  0  0
 11 35  1  0  0  0  0
 11 33  1  0  0  0  0
 11 34  1  0  0  0  0
 12 36  1  0  0  0  0
 12 37  1  0  0  0  0
 12 38  1  0  0  0  0
 13 15  2  0  0  0  0
 13 16  1  0  0  0  0
 14 17  2  0  0  0  0
 15 18  1  0  0  0  0
 15 17  1  0  0  0  0
 16 19  2  0  0  0  0
 16 39  1  0  0  0  0
 18 40  1  0  0  0  0
 18 20  2  0  0  0  0
 19 20  1  0  0  0  0
 19 41  1  0  0  0  0
 20 42  1  0  0  0  0
M  END
