decoy-965
 OpenBabel06062114513D

 22 22  0  0  0  0  0  0  0  0999 V2000
   -0.2090    1.5600   -0.3150 C   0  0  0  0  0  0  0  0  0  0  0  0
   -0.9000    0.3550   -0.9180 C   0  0  0  0  0  0  0  0  0  0  0  0
    1.2450    1.6180   -0.7330 C   0  0  0  0  0  0  0  0  0  0  0  0
   -0.5310    1.8930    1.1400 C   0  0  0  0  0  0  0  0  0  0  0  0
   -0.1180   -0.9670   -0.6530 C   0  0  0  0  0  0  0  0  0  0  0  0
   -2.2180    0.2280   -0.5350 F   0  0  0  0  0  0  0  0  0  0  0  0
   -1.0030    0.5430   -2.2810 F   0  0  0  0  0  0  0  0  0  0  0  0
    1.9880    0.2720   -0.4710 C   0  0  0  0  0  0  0  0  0  0  0  0
    1.3040    1.9020   -2.0820 F   0  0  0  0  0  0  0  0  0  0  0  0
    1.9360    2.6730   -0.1770 F   0  0  0  0  0  0  0  0  0  0  0  0
   -1.3230    3.2310    1.1990 C   0  0  0  0  0  0  0  0  0  0  0  0
   -1.2750    0.9400    1.8030 F   0  0  0  0  0  0  0  0  0  0  0  0
    0.5690    2.0240    1.9620 F   0  0  0  0  0  0  0  0  0  0  0  0
    1.2650   -0.8380   -1.0440 O   0  0  0  0  0  0  0  0  0  0  0  0
   -0.2070   -1.3690    0.6600 F   0  0  0  0  0  0  0  0  0  0  0  0
   -0.6480   -1.9970   -1.3950 F   0  0  0  0  0  0  0  0  0  0  0  0
    3.2310    0.2860   -1.0610 F   0  0  0  0  0  0  0  0  0  0  0  0
    2.2120    0.0550    0.8690 F   0  0  0  0  0  0  0  0  0  0  0  0
   -0.5900    4.2630    0.6600 F   0  0  0  0  0  0  0  0  0  0  0  0
   -2.5000    3.1390    0.4950 F   0  0  0  0  0  0  0  0  0  0  0  0
   -1.6410    3.5820    2.4910 F   0  0  0  0  0  0  0  0  0  0  0  0
   -0.6260    2.3420   -0.8250 H   0  0  0  0  0  0  0  0  0  0  0  0
  1  4  1  0  0  0  0
  1  2  1  0  0  0  0
  1  3  1  0  0  0  0
  1 22  1  0  0  0  0
  2  5  1  0  0  0  0
  2  6  1  0  0  0  0
  2  7  1  0  0  0  0
  3  8  1  0  0  0  0
  3 10  1  0  0  0  0
  3  9  1  0  0  0  0
  4 11  1  0  0  0  0
  4 12  1  0  0  0  0
  4 13  1  0  0  0  0
  5 15  1  0  0  0  0
  5 14  1  0  0  0  0
  5 16  1  0  0  0  0
  8 18  1  0  0  0  0
  8 14  1  0  0  0  0
  8 17  1  0  0  0  0
 11 21  1  0  0  0  0
 11 19  1  0  0  0  0
 11 20  1  0  0  0  0
M  END
