decoy-392
 OpenBabel06062114513D

 28 29  0  0  0  0  0  0  0  0999 V2000
    0.1990    1.4390    0.2380 C   0  0  0  0  0  0  0  0  0  0  0  0
    0.0390    0.0290    0.2640 C   0  0  0  0  0  0  0  0  0  0  0  0
    1.4210    1.9770   -0.2310 C   0  0  0  0  0  0  0  0  0  0  0  0
   -0.7920    2.3220    0.5750 N   0  0  0  0  0  0  0  0  0  0  0  0
    1.1010   -0.8190   -0.1160 C   0  0  0  0  0  0  0  0  0  0  0  0
   -1.1080   -0.5140    0.5790 F   0  0  0  0  0  0  0  0  0  0  0  0
    2.4820    1.1290   -0.6090 C   0  0  0  0  0  0  0  0  0  0  0  0
    1.5930    3.2740   -0.2990 F   0  0  0  0  0  0  0  0  0  0  0  0
   -1.6150    2.2860    1.6120 C   0  0  0  0  0  0  0  0  0  0  0  0
    2.3250   -0.2690   -0.5440 C   0  0  0  0  0  0  0  0  0  0  0  0
    0.9460   -2.1170   -0.0880 F   0  0  0  0  0  0  0  0  0  0  0  0
    3.6130    1.6380   -1.0230 F   0  0  0  0  0  0  0  0  0  0  0  0
   -2.4510    3.3080    1.7300 N   0  0  0  0  0  0  0  0  0  0  0  0
   -1.5270    1.4220    2.4760 O   0  0  0  0  0  0  0  0  0  0  0  0
    3.3070   -1.0560   -0.8980 F   0  0  0  0  0  0  0  0  0  0  0  0
   -3.3640    3.5520    2.7210 C   0  0  0  0  0  0  0  0  0  0  0  0
   -3.4690    4.8790    3.2000 C   0  0  0  0  0  0  0  0  0  0  0  0
   -4.2490    2.5690    3.2350 C   0  0  0  0  0  0  0  0  0  0  0  0
   -4.3950    5.2080    4.2120 C   0  0  0  0  0  0  0  0  0  0  0  0
   -2.6890    5.8180    2.7270 F   0  0  0  0  0  0  0  0  0  0  0  0
   -5.1760    2.8980    4.2450 C   0  0  0  0  0  0  0  0  0  0  0  0
   -4.2650    1.3560    2.7460 F   0  0  0  0  0  0  0  0  0  0  0  0
   -5.2440    4.2160    4.7400 C   0  0  0  0  0  0  0  0  0  0  0  0
   -4.4690    6.4340    4.6600 F   0  0  0  0  0  0  0  0  0  0  0  0
   -5.9870    1.9860    4.7150 F   0  0  0  0  0  0  0  0  0  0  0  0
   -6.1050    4.5210    5.6750 F   0  0  0  0  0  0  0  0  0  0  0  0
   -0.8310    3.1310    0.0400 H   0  0  0  0  0  0  0  0  0  0  0  0
   -2.3290    4.0250    1.0870 H   0  0  0  0  0  0  0  0  0  0  0  0
  1  2  2  0  0  0  0
  1  4  1  0  0  0  0
  1  3  1  0  0  0  0
  2  6  1  0  0  0  0
  2  5  1  0  0  0  0
  3  7  2  0  0  0  0
  3  8  1  0  0  0  0
  4  9  1  0  0  0  0
  4 27  1  0  0  0  0
  5 11  1  0  0  0  0
  5 10  2  0  0  0  0
  7 10  1  0  0  0  0
  7 12  1  0  0  0  0
  9 13  1  0  0  0  0
  9 14  2  0  0  0  0
 10 15  1  0  0  0  0
 13 16  1  0  0  0  0
 13 28  1  0  0  0  0
 16 17  2  0  0  0  0
 16 18  1  0  0  0  0
 17 19  1  0  0  0  0
 17 20  1  0  0  0  0
 18 21  2  0  0  0  0
 18 22  1  0  0  0  0
 19 24  1  0  0  0  0
 19 23  2  0  0  0  0
 21 25  1  0  0  0  0
 21 23  1  0  0  0  0
 23 26  1  0  0  0  0
M  END
