decoy-441
 OpenBabel06062114513D

 33 34  0  0  0  0  0  0  0  0999 V2000
   -0.0610    1.5320    0.0320 C   0  0  0  0  0  0  0  0  0  0  0  0
   -0.0280    0.0110    0.0470 C   0  0  0  0  0  0  0  0  0  0  0  0
    1.3540    2.0540   -0.1720 C   0  0  0  0  0  0  0  0  0  0  0  0
   -1.0940    1.9370   -1.0820 C   0  0  0  0  0  0  0  0  0  0  0  0
   -0.5910    2.2070    1.3500 C   0  0  0  0  0  0  0  0  0  0  0  0
   -0.5300   -0.7770    1.1170 C   0  0  0  0  0  0  0  0  0  0  0  0
    0.5330   -0.6890   -1.0530 C   0  0  0  0  0  0  0  0  0  0  0  0
    1.7260    2.9310   -1.2240 C   0  0  0  0  0  0  0  0  0  0  0  0
    2.3840    1.6550    0.7210 C   0  0  0  0  0  0  0  0  0  0  0  0
   -0.4740   -2.1850    1.0950 C   0  0  0  0  0  0  0  0  0  0  0  0
    0.5980   -2.0950   -1.0900 C   0  0  0  0  0  0  0  0  0  0  0  0
    3.0500    3.3860   -1.3820 C   0  0  0  0  0  0  0  0  0  0  0  0
    3.7120    2.0990    0.5760 C   0  0  0  0  0  0  0  0  0  0  0  0
    0.0930   -2.8510   -0.0130 C   0  0  0  0  0  0  0  0  0  0  0  0
   -1.0980   -3.0430    2.4170 Cl  0  0  0  0  0  0  0  0  0  0  0  0
    1.2910   -2.8500   -2.4400 Cl  0  0  0  0  0  0  0  0  0  0  0  0
    4.0520    2.9690   -0.4790 C   0  0  0  0  0  0  0  0  0  0  0  0
    3.4020    4.4320   -2.6690 Cl  0  0  0  0  0  0  0  0  0  0  0  0
    4.8810    1.5670    1.6830 Cl  0  0  0  0  0  0  0  0  0  0  0  0
    0.1640   -4.2090   -0.0670 O   0  0  0  0  0  0  0  0  0  0  0  0
    5.3410    3.3870   -0.6020 O   0  0  0  0  0  0  0  0  0  0  0  0
   -2.0710    1.4870   -0.8870 H   0  0  0  0  0  0  0  0  0  0  0  0
   -1.2320    3.0200   -1.1200 H   0  0  0  0  0  0  0  0  0  0  0  0
   -0.7700    1.6070   -2.0710 H   0  0  0  0  0  0  0  0  0  0  0  0
   -0.0030    1.9070    2.2200 H   0  0  0  0  0  0  0  0  0  0  0  0
   -0.5390    3.2960    1.2760 H   0  0  0  0  0  0  0  0  0  0  0  0
   -1.6320    1.9380    1.5420 H   0  0  0  0  0  0  0  0  0  0  0  0
   -0.9500   -0.3320    1.9330 H   0  0  0  0  0  0  0  0  0  0  0  0
    0.9140   -0.1650   -1.8450 H   0  0  0  0  0  0  0  0  0  0  0  0
    1.0300    3.2570   -1.8950 H   0  0  0  0  0  0  0  0  0  0  0  0
    2.1660    1.0180    1.4910 H   0  0  0  0  0  0  0  0  0  0  0  0
   -0.2310   -4.5440    0.7630 H   0  0  0  0  0  0  0  0  0  0  0  0
    5.3720    3.9730   -1.3850 H   0  0  0  0  0  0  0  0  0  0  0  0
  1  2  1  0  0  0  0
  1  5  1  0  0  0  0
  1  3  1  0  0  0  0
  1  4  1  0  0  0  0
  2  6  2  0  0  0  0
  2  7  1  0  0  0  0
  3  9  2  0  0  0  0
  3  8  1  0  0  0  0
  4 22  1  0  0  0  0
  4 23  1  0  0  0  0
  4 24  1  0  0  0  0
  5 27  1  0  0  0  0
  5 25  1  0  0  0  0
  5 26  1  0  0  0  0
  6 28  1  0  0  0  0
  6 10  1  0  0  0  0
  7 11  2  0  0  0  0
  7 29  1  0  0  0  0
  8 12  2  0  0  0  0
  8 30  1  0  0  0  0
  9 31  1  0  0  0  0
  9 13  1  0  0  0  0
 10 15  1  0  0  0  0
 10 14  2  0  0  0  0
 11 14  1  0  0  0  0
 11 16  1  0  0  0  0
 12 17  1  0  0  0  0
 12 18  1  0  0  0  0
 13 19  1  0  0  0  0
 13 17  2  0  0  0  0
 14 20  1  0  0  0  0
 17 21  1  0  0  0  0
 20 32  1  0  0  0  0
 21 33  1  0  0  0  0
M  END
