
  ACD/Labs06062115113D

 55 58  0  0  0  0  0  0  0  0  2 V2000
   16.7333   -7.2151   -0.5107 C   0  0  0  0  0  0  0  0  0  0  0  0
   16.6649   -8.5663   -0.4588 N   0  3  0  0  0  0  0  0  0  0  0  0
   18.0035   -6.7424   -0.2694 C   0  0  0  0  0  0  0  0  0  0  0  0
   15.6967   -6.3348   -0.7670 C   0  0  0  0  0  0  0  0  0  0  0  0
   17.8611   -9.1281   -0.1771 C   0  0  0  0  0  0  0  0  0  0  0  0
   15.4289   -9.3392   -0.6752 C   0  0  0  0  0  0  0  0  0  0  0  0
   18.9696   -7.9836    0.0000 S   0  0  0  0  0  0  0  0  0  0  0  0
   18.3069   -5.3957   -0.2761 C   0  0  0  0  0  0  0  0  0  0  0  0
   15.9783   -4.9722   -0.7766 C   0  0  0  0  0  0  0  0  0  0  0  0
   18.1217  -10.6044   -0.0526 C   0  0  0  0  0  0  0  0  0  0  0  0
   15.1644   -9.5327   -2.1709 C   0  0  0  0  0  0  0  0  0  0  0  0
   17.2695   -4.5090   -0.5349 C   0  0  0  0  0  0  0  0  0  0  0  0
   19.6209  -10.8858   -0.1434 C   0  0  0  0  0  0  0  0  0  0  0  0
   13.8473  -10.2900   -2.3709 C   0  0  0  0  0  0  0  0  0  0  0  0
   19.7442  -12.2600   -0.7898 C   0  0  0  0  0  0  0  0  0  0  0  0
   21.1392  -12.8338   -0.7124 C   0  0  0  0  0  0  0  0  0  0  0  0
   21.4037  -14.1430   -0.5253 N   0  3  0  0  0  0  0  0  0  0  0  0
   22.5176  -12.0209   -0.8428 S   0  0  0  0  0  0  0  0  0  0  0  0
   22.7283  -14.4063   -0.4968 C   0  0  0  0  0  0  0  0  0  0  0  0
   20.3586  -15.1657   -0.3629 C   0  0  0  0  0  0  0  0  0  0  0  0
   23.4954  -13.2761   -0.6691 C   0  0  0  0  0  0  0  0  0  0  0  0
   23.3242  -15.6429   -0.3193 C   0  0  0  0  0  0  0  0  0  0  0  0
   20.0330  -15.8026   -1.7136 C   0  0  0  0  0  0  0  0  0  0  0  0
   24.8755  -13.3178   -0.6783 C   0  0  0  0  0  0  0  0  0  0  0  0
   24.7127  -15.7076   -0.3238 C   0  0  0  0  0  0  0  0  0  0  0  0
   18.9475  -16.8641   -1.5188 C   0  0  0  0  0  0  0  0  0  0  0  0
   25.4795  -14.5576   -0.5022 C   0  0  0  0  0  0  0  0  0  0  0  0
   14.6691   -6.7108   -0.9592 H   0  0  0  0  0  0  0  0  0  0  0  0
   15.5432  -10.3271   -0.1800 H   0  0  0  0  0  0  0  0  0  0  0  0
   14.5850   -8.7864   -0.2098 H   0  0  0  0  0  0  0  0  0  0  0  0
   19.3416   -5.0408   -0.0817 H   0  0  0  0  0  0  0  0  0  0  0  0
   15.1627   -4.2456   -0.9796 H   0  0  0  0  0  0  0  0  0  0  0  0
   17.7349  -10.9577    0.9272 H   0  0  0  0  0  0  0  0  0  0  0  0
   17.5927  -11.1347   -0.8731 H   0  0  0  0  0  0  0  0  0  0  0  0
   15.0978   -8.5397   -2.6648 H   0  0  0  0  0  0  0  0  0  0  0  0
   15.9970  -10.1152   -2.6201 H   0  0  0  0  0  0  0  0  0  0  0  0
   17.4747   -3.4172   -0.5487 H   0  0  0  0  0  0  0  0  0  0  0  0
   20.1228  -10.1179   -0.7700 H   0  0  0  0  0  0  0  0  0  0  0  0
   20.0765  -10.8934    0.8699 H   0  0  0  0  0  0  0  0  0  0  0  0
   13.6479  -10.4047   -3.4579 H   0  0  0  0  0  0  0  0  0  0  0  0
   13.9226  -11.2938   -1.9004 H   0  0  0  0  0  0  0  0  0  0  0  0
   13.0177   -9.7200   -1.9004 H   0  0  0  0  0  0  0  0  0  0  0  0
   19.0504  -12.9589   -0.2755 H   0  0  0  0  0  0  0  0  0  0  0  0
   19.4602  -12.1765   -1.8606 H   0  0  0  0  0  0  0  0  0  0  0  0
   20.7281  -15.9387    0.3443 H   0  0  0  0  0  0  0  0  0  0  0  0
   19.4524  -14.6804    0.0585 H   0  0  0  0  0  0  0  0  0  0  0  0
   22.7069  -16.5557   -0.1777 H   0  0  0  0  0  0  0  0  0  0  0  0
   19.6682  -15.0213   -2.4142 H   0  0  0  0  0  0  0  0  0  0  0  0
   20.9471  -16.2770   -2.1304 H   0  0  0  0  0  0  0  0  0  0  0  0
   25.4745  -12.3931   -0.8212 H   0  0  0  0  0  0  0  0  0  0  0  0
   25.2148  -16.6887   -0.1832 H   0  0  0  0  0  0  0  0  0  0  0  0
   18.5898  -17.2139   -2.5109 H   0  0  0  0  0  0  0  0  0  0  0  0
   19.3673  -17.7231   -0.9527 H   0  0  0  0  0  0  0  0  0  0  0  0
   18.0981  -16.4251   -0.9527 H   0  0  0  0  0  0  0  0  0  0  0  0
   26.5881  -14.6302   -0.5041 H   0  0  0  0  0  0  0  0  0  0  0  0
  1  2  1  0  0  0  0
  1  3  2  0  0  0  0
  1  4  1  0  0  0  0
  2  5  2  0  0  0  0
  2  6  1  0  0  0  0
  3  7  1  0  0  0  0
  3  8  1  0  0  0  0
  4  9  2  0  0  0  0
  5  7  1  0  0  0  0
  5 10  1  0  0  0  0
  6 11  1  0  0  0  0
  8 12  2  0  0  0  0
  9 12  1  0  0  0  0
 10 13  1  0  0  0  0
 11 14  1  0  0  0  0
 13 15  1  0  0  0  0
 15 16  1  0  0  0  0
 16 17  2  0  0  0  0
 16 18  1  0  0  0  0
 17 20  1  0  0  0  0
 17 19  1  0  0  0  0
 18 21  1  0  0  0  0
 19 22  2  0  0  0  0
 19 21  1  0  0  0  0
 20 23  1  0  0  0  0
 21 24  2  0  0  0  0
 22 25  1  0  0  0  0
 23 26  1  0  0  0  0
 24 27  1  0  0  0  0
 25 27  2  0  0  0  0
 28  4  1  0  0  0  0
 29  6  1  0  0  0  0
 30  6  1  0  0  0  0
 31  8  1  0  0  0  0
 32  9  1  0  0  0  0
 33 10  1  0  0  0  0
 34 10  1  0  0  0  0
 35 11  1  0  0  0  0
 36 11  1  0  0  0  0
 37 12  1  0  0  0  0
 38 13  1  0  0  0  0
 39 13  1  0  0  0  0
 40 14  1  0  0  0  0
 41 14  1  0  0  0  0
 42 14  1  0  0  0  0
 43 15  1  0  0  0  0
 44 15  1  0  0  0  0
 45 20  1  0  0  0  0
 46 20  1  0  0  0  0
 47 22  1  0  0  0  0
 48 23  1  0  0  0  0
 49 23  1  0  0  0  0
 50 24  1  0  0  0  0
 51 25  1  0  0  0  0
 52 26  1  0  0  0  0
 53 26  1  0  0  0  0
 54 26  1  0  0  0  0
 55 27  1  0  0  0  0
M  CHG  2   2   1  17   1
M  END
