decoy-251
 OpenBabel06062114513D

 21 21  0  0  0  0  0  0  0  0999 V2000
    0.0120    1.4570    0.0860 C   0  0  0  0  0  0  0  0  0  0  0  0
    0.0430    0.0400    0.1490 C   0  0  0  0  0  0  0  0  0  0  0  0
    1.2040    2.1690   -0.1620 C   0  0  0  0  0  0  0  0  0  0  0  0
   -1.1370    2.1800    0.2010 N   0  0  0  0  0  0  0  0  0  0  0  0
    1.2760   -0.6560    0.0250 C   0  0  0  0  0  0  0  0  0  0  0  0
   -1.7450   -0.9930    0.2220 I   0  0  0  0  0  0  0  0  0  0  0  0
    2.4200    1.4820   -0.2900 C   0  0  0  0  0  0  0  0  0  0  0  0
    1.2340    4.2220   -0.3000 I   0  0  0  0  0  0  0  0  0  0  0  0
   -1.9220    2.2420    1.2690 C   0  0  0  0  0  0  0  0  0  0  0  0
    2.4680    0.0820   -0.1900 C   0  0  0  0  0  0  0  0  0  0  0  0
    1.3240   -2.0640    0.1090 C   0  0  0  0  0  0  0  0  0  0  0  0
   -3.0540    3.1390    1.2430 C   0  0  0  0  0  0  0  0  0  0  0  0
   -1.6910    1.5980    2.2850 O   0  0  0  0  0  0  0  0  0  0  0  0
    4.3360   -0.7780   -0.3030 I   0  0  0  0  0  0  0  0  0  0  0  0
    0.7380   -2.7200    1.1350 O   0  0  0  0  0  0  0  0  0  0  0  0
    1.9660   -2.8020   -0.8240 O   0  0  0  0  0  0  0  0  0  0  0  0
   -1.3170    2.8230   -0.5030 H   0  0  0  0  0  0  0  0  0  0  0  0
    3.2810    2.0090   -0.4450 H   0  0  0  0  0  0  0  0  0  0  0  0
   -3.6120    3.1100    2.1820 H   0  0  0  0  0  0  0  0  0  0  0  0
   -2.7110    4.1620    1.0770 H   0  0  0  0  0  0  0  0  0  0  0  0
   -3.7290    2.8550    0.4330 H   0  0  0  0  0  0  0  0  0  0  0  0
  1  2  2  0  0  0  0
  1  4  1  0  0  0  0
  1  3  1  0  0  0  0
  2  6  1  0  0  0  0
  2  5  1  0  0  0  0
  3  7  2  0  0  0  0
  3  8  1  0  0  0  0
  4  9  1  0  0  0  0
  4 17  1  0  0  0  0
  5 11  1  0  0  0  0
  5 10  2  0  0  0  0
  7 10  1  0  0  0  0
  7 18  1  0  0  0  0
  9 13  2  0  0  0  0
  9 12  1  0  0  0  0
 10 14  1  0  0  0  0
 11 15  1  0  0  0  0
 11 16  2  0  0  0  0
 12 19  1  0  0  0  0
 12 20  1  0  0  0  0
 12 21  1  0  0  0  0
M  END
