decoy-605
 OpenBabel06062114513D

 62 64  0  0  0  0  0  0  0  0999 V2000
   -0.2640    1.4310   -0.7190 C   0  0  0  0  0  0  0  0  0  0  0  0
   -0.1360   -0.0270   -0.3030 C   0  0  0  0  0  0  0  0  0  0  0  0
    0.9490    2.3000   -0.4490 C   0  0  0  0  0  0  0  0  0  0  0  0
   -1.0670    1.7140   -1.9840 C   0  0  0  0  0  0  0  0  0  0  0  0
   -1.4470   -0.5160    0.3910 C   0  0  0  0  0  0  0  0  0  0  0  0
    0.3000   -1.0470   -1.4040 C   0  0  0  0  0  0  0  0  0  0  0  0
    1.0010    2.7040    1.0580 C   0  0  0  0  0  0  0  0  0  0  0  0
    2.3450    1.7650   -0.9050 C   0  0  0  0  0  0  0  0  0  0  0  0
   -2.0440    2.9280   -1.8210 C   0  0  0  0  0  0  0  0  0  0  0  0
   -0.3230    1.7500   -3.3620 C   0  0  0  0  0  0  0  0  0  0  0  0
   -1.3160   -1.9590    0.9480 C   0  0  0  0  0  0  0  0  0  0  0  0
    0.4380   -2.4870   -0.8440 C   0  0  0  0  0  0  0  0  0  0  0  0
    2.1400    3.7160    1.3590 C   0  0  0  0  0  0  0  0  0  0  0  0
    3.4810    2.7830   -0.6160 C   0  0  0  0  0  0  0  0  0  0  0  0
   -1.5180    4.3060   -2.3070 C   0  0  0  0  0  0  0  0  0  0  0  0
    0.1880    3.1420   -3.8240 C   0  0  0  0  0  0  0  0  0  0  0  0
   -0.8710   -2.9700   -0.1500 C   0  0  0  0  0  0  0  0  0  0  0  0
    3.5280    3.1900    0.8880 C   0  0  0  0  0  0  0  0  0  0  0  0
   -0.8900    4.2620   -3.7320 C   0  0  0  0  0  0  0  0  0  0  0  0
   -0.7090   -4.4000    0.4300 C   0  0  0  0  0  0  0  0  0  0  0  0
    4.6490    4.2280    1.1580 C   0  0  0  0  0  0  0  0  0  0  0  0
   -1.9600    4.1580   -4.8560 C   0  0  0  0  0  0  0  0  0  0  0  0
    0.6220   -0.0930    0.4810 H   0  0  0  0  0  0  0  0  0  0  0  0
    0.8050    3.2400   -0.9720 H   0  0  0  0  0  0  0  0  0  0  0  0
   -1.7550    0.8710   -2.0810 H   0  0  0  0  0  0  0  0  0  0  0  0
   -1.6900    0.1560    1.2190 H   0  0  0  0  0  0  0  0  0  0  0  0
   -2.2840   -0.4910   -0.3100 H   0  0  0  0  0  0  0  0  0  0  0  0
   -0.4300   -1.0670   -2.2160 H   0  0  0  0  0  0  0  0  0  0  0  0
    1.2610   -0.7500   -1.8270 H   0  0  0  0  0  0  0  0  0  0  0  0
    0.0490    3.1600    1.3450 H   0  0  0  0  0  0  0  0  0  0  0  0
    1.1460    1.8220    1.6850 H   0  0  0  0  0  0  0  0  0  0  0  0
    2.5860    0.8340   -0.3880 H   0  0  0  0  0  0  0  0  0  0  0  0
    2.3380    1.5590   -1.9750 H   0  0  0  0  0  0  0  0  0  0  0  0
   -2.9580    2.7190   -2.3860 H   0  0  0  0  0  0  0  0  0  0  0  0
   -2.3460    3.0200   -0.7750 H   0  0  0  0  0  0  0  0  0  0  0  0
    0.5120    1.0530   -3.3550 H   0  0  0  0  0  0  0  0  0  0  0  0
   -1.0110    1.3900   -4.1330 H   0  0  0  0  0  0  0  0  0  0  0  0
   -0.5910   -1.9600    1.7670 H   0  0  0  0  0  0  0  0  0  0  0  0
   -2.2830   -2.2650    1.3580 H   0  0  0  0  0  0  0  0  0  0  0  0
    0.6850   -3.1620   -1.6680 H   0  0  0  0  0  0  0  0  0  0  0  0
    1.2670   -2.5150   -0.1310 H   0  0  0  0  0  0  0  0  0  0  0  0
    1.9150    4.6630    0.8590 H   0  0  0  0  0  0  0  0  0  0  0  0
    2.1660    3.9050    2.4350 H   0  0  0  0  0  0  0  0  0  0  0  0
    4.4360    2.3340   -0.9030 H   0  0  0  0  0  0  0  0  0  0  0  0
    3.3310    3.6720   -1.2360 H   0  0  0  0  0  0  0  0  0  0  0  0
   -2.3440    5.0230   -2.2960 H   0  0  0  0  0  0  0  0  0  0  0  0
   -0.7800    4.6860   -1.6000 H   0  0  0  0  0  0  0  0  0  0  0  0
    1.0530    3.4310   -3.2270 H   0  0  0  0  0  0  0  0  0  0  0  0
    0.5440    3.0620   -4.8550 H   0  0  0  0  0  0  0  0  0  0  0  0
   -1.6600   -3.0160   -0.9080 H   0  0  0  0  0  0  0  0  0  0  0  0
    3.7680    2.2950    1.4730 H   0  0  0  0  0  0  0  0  0  0  0  0
   -0.3780    5.2170   -3.8890 H   0  0  0  0  0  0  0  0  0  0  0  0
   -1.6480   -4.7360    0.8750 H   0  0  0  0  0  0  0  0  0  0  0  0
   -0.4380   -5.1010   -0.3620 H   0  0  0  0  0  0  0  0  0  0  0  0
    0.0680   -4.4220    1.1970 H   0  0  0  0  0  0  0  0  0  0  0  0
    4.6920    4.4690    2.2220 H   0  0  0  0  0  0  0  0  0  0  0  0
    5.6190    3.8240    0.8610 H   0  0  0  0  0  0  0  0  0  0  0  0
    4.4670    5.1480    0.5980 H   0  0  0  0  0  0  0  0  0  0  0  0
   -2.6550    4.9980   -4.7930 H   0  0  0  0  0  0  0  0  0  0  0  0
   -1.4820    4.1890   -5.8370 H   0  0  0  0  0  0  0  0  0  0  0  0
   -2.5310    3.2320   -4.7790 H   0  0  0  0  0  0  0  0  0  0  0  0
   -0.9080    1.7760   -0.0050 H   0  0  0  0  0  0  0  0  0  0  0  0
  1  3  1  0  0  0  0
  1  2  1  0  0  0  0
  1 62  1  0  0  0  0
  1  4  1  0  0  0  0
  2  5  1  0  0  0  0
  2 23  1  0  0  0  0
  2  6  1  0  0  0  0
  3 24  1  0  0  0  0
  3  7  1  0  0  0  0
  3  8  1  0  0  0  0
  4 25  1  0  0  0  0
  4  9  1  0  0  0  0
  4 10  1  0  0  0  0
  5 11  1  0  0  0  0
  5 26  1  0  0  0  0
  5 27  1  0  0  0  0
  6 12  1  0  0  0  0
  6 28  1  0  0  0  0
  6 29  1  0  0  0  0
  7 30  1  0  0  0  0
  7 13  1  0  0  0  0
  7 31  1  0  0  0  0
  8 14  1  0  0  0  0
  8 32  1  0  0  0  0
  8 33  1  0  0  0  0
  9 35  1  0  0  0  0
  9 15  1  0  0  0  0
  9 34  1  0  0  0  0
 10 36  1  0  0  0  0
 10 16  1  0  0  0  0
 10 37  1  0  0  0  0
 11 39  1  0  0  0  0
 11 38  1  0  0  0  0
 11 17  1  0  0  0  0
 12 17  1  0  0  0  0
 12 41  1  0  0  0  0
 12 40  1  0  0  0  0
 13 43  1  0  0  0  0
 13 18  1  0  0  0  0
 13 42  1  0  0  0  0
 14 18  1  0  0  0  0
 14 44  1  0  0  0  0
 14 45  1  0  0  0  0
 15 46  1  0  0  0  0
 15 47  1  0  0  0  0
 15 19  1  0  0  0  0
 16 19  1  0  0  0  0
 16 48  1  0  0  0  0
 16 49  1  0  0  0  0
 17 50  1  0  0  0  0
 17 20  1  0  0  0  0
 18 21  1  0  0  0  0
 18 51  1  0  0  0  0
 19 52  1  0  0  0  0
 19 22  1  0  0  0  0
 20 53  1  0  0  0  0
 20 55  1  0  0  0  0
 20 54  1  0  0  0  0
 21 56  1  0  0  0  0
 21 57  1  0  0  0  0
 21 58  1  0  0  0  0
 22 59  1  0  0  0  0
 22 61  1  0  0  0  0
 22 60  1  0  0  0  0
M  END
