decoy-481
 OpenBabel06062114513D

 31 32  0  0  0  0  0  0  0  0999 V2000
    0.1770    1.2950   -0.0570 C   0  0  0  0  0  0  0  0  0  0  0  0
    0.1660   -0.2310    0.3770 C   0  0  0  0  0  0  0  0  0  0  0  0
    1.6700    1.9030   -0.1960 C   0  0  0  0  0  0  0  0  0  0  0  0
   -0.8020    1.5660   -1.2750 C   0  0  0  0  0  0  0  0  0  0  0  0
   -0.4380    1.9430    1.0050 F   0  0  0  0  0  0  0  0  0  0  0  0
    1.0180   -0.5100    1.6980 C   0  0  0  0  0  0  0  0  0  0  0  0
   -1.2960   -0.8370    0.4720 C   0  0  0  0  0  0  0  0  0  0  0  0
    0.7830   -0.8990   -0.6680 F   0  0  0  0  0  0  0  0  0  0  0  0
    2.7240    1.1720    0.7460 C   0  0  0  0  0  0  0  0  0  0  0  0
    2.2960    2.0610   -1.6420 C   0  0  0  0  0  0  0  0  0  0  0  0
    1.5990    3.2180    0.2450 F   0  0  0  0  0  0  0  0  0  0  0  0
   -2.2380    0.9620   -1.1130 C   0  0  0  0  0  0  0  0  0  0  0  0
   -0.9350    2.9240   -1.4800 F   0  0  0  0  0  0  0  0  0  0  0  0
   -0.3080    1.0470   -2.4510 F   0  0  0  0  0  0  0  0  0  0  0  0
    2.1010    0.5730    2.0360 C   0  0  0  0  0  0  0  0  0  0  0  0
    0.2540   -0.6560    2.8380 F   0  0  0  0  0  0  0  0  0  0  0  0
    1.6250   -1.7480    1.5910 F   0  0  0  0  0  0  0  0  0  0  0  0
   -2.1870   -0.5600   -0.7790 C   0  0  0  0  0  0  0  0  0  0  0  0
   -1.2250   -2.2000    0.6770 F   0  0  0  0  0  0  0  0  0  0  0  0
   -1.9780   -0.3420    1.5660 F   0  0  0  0  0  0  0  0  0  0  0  0
    3.3720    0.1370    0.1000 F   0  0  0  0  0  0  0  0  0  0  0  0
    3.7450    2.0300    1.1140 F   0  0  0  0  0  0  0  0  0  0  0  0
    1.6330    2.9640   -2.4390 F   0  0  0  0  0  0  0  0  0  0  0  0
    3.5810    2.5530   -1.6050 F   0  0  0  0  0  0  0  0  0  0  0  0
    2.3710    0.8720   -2.3270 F   0  0  0  0  0  0  0  0  0  0  0  0
   -2.9410    1.6440   -0.1410 F   0  0  0  0  0  0  0  0  0  0  0  0
   -2.9720    1.1540   -2.2680 F   0  0  0  0  0  0  0  0  0  0  0  0
    1.5790    1.6030    2.7940 F   0  0  0  0  0  0  0  0  0  0  0  0
    3.0860    0.0330    2.8410 F   0  0  0  0  0  0  0  0  0  0  0  0
   -1.7250   -1.2780   -1.8630 F   0  0  0  0  0  0  0  0  0  0  0  0
   -3.4680   -1.0310   -0.5660 F   0  0  0  0  0  0  0  0  0  0  0  0
  1  3  1  0  0  0  0
  1  5  1  0  0  0  0
  1  2  1  0  0  0  0
  1  4  1  0  0  0  0
  2  7  1  0  0  0  0
  2  6  1  0  0  0  0
  2  8  1  0  0  0  0
  3 11  1  0  0  0  0
  3  9  1  0  0  0  0
  3 10  1  0  0  0  0
  4 12  1  0  0  0  0
  4 13  1  0  0  0  0
  4 14  1  0  0  0  0
  6 15  1  0  0  0  0
  6 16  1  0  0  0  0
  6 17  1  0  0  0  0
  7 19  1  0  0  0  0
  7 20  1  0  0  0  0
  7 18  1  0  0  0  0
  9 22  1  0  0  0  0
  9 15  1  0  0  0  0
  9 21  1  0  0  0  0
 10 24  1  0  0  0  0
 10 23  1  0  0  0  0
 10 25  1  0  0  0  0
 12 18  1  0  0  0  0
 12 26  1  0  0  0  0
 12 27  1  0  0  0  0
 15 28  1  0  0  0  0
 15 29  1  0  0  0  0
 18 31  1  0  0  0  0
 18 30  1  0  0  0  0
M  END
