decoy-672
 OpenBabel06062114513D

 53 52  0  0  0  0  0  0  0  0999 V2000
   -0.4320    1.8710   -0.0910 P   0  0  0  0  0  0  0  0  0  0  0  0
   -0.3880    0.3240    0.1010 O   0  0  0  0  0  0  0  0  0  0  0  0
    1.0280    2.3840    0.0990 O   0  0  0  0  0  0  0  0  0  0  0  0
   -1.0060    2.2650   -1.4880 O   0  0  0  0  0  0  0  0  0  0  0  0
   -1.2640    2.4440    0.9380 O   0  0  0  0  0  0  0  0  0  0  0  0
   -1.6520   -0.3650    0.0240 C   0  0  0  0  0  0  0  0  0  0  0  0
    1.2190    3.8110    0.0200 C   0  0  0  0  0  0  0  0  0  0  0  0
   -0.2780    1.7630   -2.6270 C   0  0  0  0  0  0  0  0  0  0  0  0
   -1.3950   -1.8820    0.1800 C   0  0  0  0  0  0  0  0  0  0  0  0
    2.7280    4.1150    0.1750 C   0  0  0  0  0  0  0  0  0  0  0  0
   -0.9860    2.2490   -3.9130 C   0  0  0  0  0  0  0  0  0  0  0  0
   -2.6980   -2.7220    0.1130 C   0  0  0  0  0  0  0  0  0  0  0  0
    3.0460    5.6320    0.1050 C   0  0  0  0  0  0  0  0  0  0  0  0
   -0.2820    1.7630   -5.2070 C   0  0  0  0  0  0  0  0  0  0  0  0
   -2.4330   -4.2430    0.2700 C   0  0  0  0  0  0  0  0  0  0  0  0
    4.5600    5.9300    0.2610 C   0  0  0  0  0  0  0  0  0  0  0  0
   -0.9970    2.2540   -6.4930 C   0  0  0  0  0  0  0  0  0  0  0  0
   -3.7280   -5.0830    0.2030 C   0  0  0  0  0  0  0  0  0  0  0  0
    4.8820    7.4390    0.1910 C   0  0  0  0  0  0  0  0  0  0  0  0
   -0.2980    1.7720   -7.7840 C   0  0  0  0  0  0  0  0  0  0  0  0
   -2.3190   -0.0350    0.8260 H   0  0  0  0  0  0  0  0  0  0  0  0
   -2.1380   -0.1880   -0.9410 H   0  0  0  0  0  0  0  0  0  0  0  0
    0.8790    4.2010   -0.9450 H   0  0  0  0  0  0  0  0  0  0  0  0
    0.6730    4.3170    0.8220 H   0  0  0  0  0  0  0  0  0  0  0  0
    0.7500    2.1370   -2.6290 H   0  0  0  0  0  0  0  0  0  0  0  0
   -0.2590    0.6690   -2.6280 H   0  0  0  0  0  0  0  0  0  0  0  0
   -0.7160   -2.2060   -0.6130 H   0  0  0  0  0  0  0  0  0  0  0  0
   -0.9030   -2.0570    1.1410 H   0  0  0  0  0  0  0  0  0  0  0  0
    3.0680    3.7200    1.1360 H   0  0  0  0  0  0  0  0  0  0  0  0
    3.2720    3.5960   -0.6190 H   0  0  0  0  0  0  0  0  0  0  0  0
   -2.0170    1.8830   -3.9050 H   0  0  0  0  0  0  0  0  0  0  0  0
   -1.0130    3.3420   -3.9060 H   0  0  0  0  0  0  0  0  0  0  0  0
   -3.3750   -2.3950    0.9060 H   0  0  0  0  0  0  0  0  0  0  0  0
   -3.1870   -2.5440   -0.8490 H   0  0  0  0  0  0  0  0  0  0  0  0
    2.7030    6.0240   -0.8570 H   0  0  0  0  0  0  0  0  0  0  0  0
    2.4980    6.1480    0.8990 H   0  0  0  0  0  0  0  0  0  0  0  0
    0.7490    2.1300   -5.2110 H   0  0  0  0  0  0  0  0  0  0  0  0
   -0.2550    0.6700   -5.2100 H   0  0  0  0  0  0  0  0  0  0  0  0
   -1.7590   -4.5780   -0.5230 H   0  0  0  0  0  0  0  0  0  0  0  0
   -1.9470   -4.4290    1.2310 H   0  0  0  0  0  0  0  0  0  0  0  0
    4.9090    5.5430    1.2220 H   0  0  0  0  0  0  0  0  0  0  0  0
    5.1140    5.4190   -0.5320 H   0  0  0  0  0  0  0  0  0  0  0  0
   -2.0270    1.8880   -6.4980 H   0  0  0  0  0  0  0  0  0  0  0  0
   -1.0240    3.3470   -6.4990 H   0  0  0  0  0  0  0  0  0  0  0  0
   -3.4870   -6.1410    0.3180 H   0  0  0  0  0  0  0  0  0  0  0  0
   -4.4120   -4.7920    1.0020 H   0  0  0  0  0  0  0  0  0  0  0  0
   -4.2240   -4.9420   -0.7590 H   0  0  0  0  0  0  0  0  0  0  0  0
    5.9560    7.5930    0.3060 H   0  0  0  0  0  0  0  0  0  0  0  0
    4.5710    7.8510   -0.7710 H   0  0  0  0  0  0  0  0  0  0  0  0
    4.3660    7.9750    0.9900 H   0  0  0  0  0  0  0  0  0  0  0  0
   -0.8390    2.1440   -8.6570 H   0  0  0  0  0  0  0  0  0  0  0  0
    0.7260    2.1460   -7.8250 H   0  0  0  0  0  0  0  0  0  0  0  0
   -0.2810    0.6810   -7.8240 H   0  0  0  0  0  0  0  0  0  0  0  0
  1  3  1  0  0  0  0
  1  2  1  0  0  0  0
  1  5  2  0  0  0  0
  1  4  1  0  0  0  0
  2  6  1  0  0  0  0
  3  7  1  0  0  0  0
  4  8  1  0  0  0  0
  6  9  1  0  0  0  0
  6 21  1  0  0  0  0
  6 22  1  0  0  0  0
  7 10  1  0  0  0  0
  7 24  1  0  0  0  0
  7 23  1  0  0  0  0
  8 11  1  0  0  0  0
  8 25  1  0  0  0  0
  8 26  1  0  0  0  0
  9 28  1  0  0  0  0
  9 12  1  0  0  0  0
  9 27  1  0  0  0  0
 10 29  1  0  0  0  0
 10 13  1  0  0  0  0
 10 30  1  0  0  0  0
 11 32  1  0  0  0  0
 11 31  1  0  0  0  0
 11 14  1  0  0  0  0
 12 15  1  0  0  0  0
 12 33  1  0  0  0  0
 12 34  1  0  0  0  0
 13 16  1  0  0  0  0
 13 36  1  0  0  0  0
 13 35  1  0  0  0  0
 14 17  1  0  0  0  0
 14 37  1  0  0  0  0
 14 38  1  0  0  0  0
 15 40  1  0  0  0  0
 15 18  1  0  0  0  0
 15 39  1  0  0  0  0
 16 41  1  0  0  0  0
 16 19  1  0  0  0  0
 16 42  1  0  0  0  0
 17 20  1  0  0  0  0
 17 43  1  0  0  0  0
 17 44  1  0  0  0  0
 18 45  1  0  0  0  0
 18 46  1  0  0  0  0
 18 47  1  0  0  0  0
 19 48  1  0  0  0  0
 19 50  1  0  0  0  0
 19 49  1  0  0  0  0
 20 51  1  0  0  0  0
 20 52  1  0  0  0  0
 20 53  1  0  0  0  0
M  END
