decoy-992
 OpenBabel06062114513D

 23 24  0  0  0  0  0  0  0  0999 V2000
   -0.1650    1.4230   -0.0230 C   0  0  0  0  0  0  0  0  0  0  0  0
   -0.2380    0.0550   -0.0560 O   0  0  0  0  0  0  0  0  0  0  0  0
   -0.2470    2.1690   -1.2190 C   0  0  0  0  0  0  0  0  0  0  0  0
    0.0700    2.0950    1.1950 C   0  0  0  0  0  0  0  0  0  0  0  0
   -1.5220   -0.3970    0.0990 C   0  0  0  0  0  0  0  0  0  0  0  0
   -0.1360    3.5720   -1.1900 C   0  0  0  0  0  0  0  0  0  0  0  0
    0.1810    3.4970    1.2240 C   0  0  0  0  0  0  0  0  0  0  0  0
   -2.3350   -0.6320   -1.0310 C   0  0  0  0  0  0  0  0  0  0  0  0
   -2.0180   -0.7070    1.3830 C   0  0  0  0  0  0  0  0  0  0  0  0
    0.0740    4.2380    0.0320 C   0  0  0  0  0  0  0  0  0  0  0  0
   -3.6420   -1.1310   -0.8750 C   0  0  0  0  0  0  0  0  0  0  0  0
   -3.3240   -1.2060    1.5400 C   0  0  0  0  0  0  0  0  0  0  0  0
    0.2240    6.0920    0.0700 Br  0  0  0  0  0  0  0  0  0  0  0  0
   -4.1390   -1.4150    0.4110 C   0  0  0  0  0  0  0  0  0  0  0  0
   -5.8650   -2.0780    0.6180 Br  0  0  0  0  0  0  0  0  0  0  0  0
   -0.3880    1.6920   -2.1120 H   0  0  0  0  0  0  0  0  0  0  0  0
    0.1610    1.5630    2.0640 H   0  0  0  0  0  0  0  0  0  0  0  0
   -0.2040    4.1050   -2.0590 H   0  0  0  0  0  0  0  0  0  0  0  0
    0.3440    3.9760    2.1120 H   0  0  0  0  0  0  0  0  0  0  0  0
   -1.9770   -0.4400   -1.9690 H   0  0  0  0  0  0  0  0  0  0  0  0
   -1.4280   -0.5690    2.2070 H   0  0  0  0  0  0  0  0  0  0  0  0
   -4.2270   -1.2920   -1.6970 H   0  0  0  0  0  0  0  0  0  0  0  0
   -3.6780   -1.4210    2.4740 H   0  0  0  0  0  0  0  0  0  0  0  0
  1  4  2  0  0  0  0
  1  2  1  0  0  0  0
  1  3  1  0  0  0  0
  2  5  1  0  0  0  0
  3  6  2  0  0  0  0
  3 16  1  0  0  0  0
  4  7  1  0  0  0  0
  4 17  1  0  0  0  0
  5  9  2  0  0  0  0
  5  8  1  0  0  0  0
  6 10  1  0  0  0  0
  6 18  1  0  0  0  0
  7 19  1  0  0  0  0
  7 10  2  0  0  0  0
  8 11  2  0  0  0  0
  8 20  1  0  0  0  0
  9 12  1  0  0  0  0
  9 21  1  0  0  0  0
 10 13  1  0  0  0  0
 11 14  1  0  0  0  0
 11 22  1  0  0  0  0
 12 23  1  0  0  0  0
 12 14  2  0  0  0  0
 14 15  1  0  0  0  0
M  END
