decoy-272
 OpenBabel06062114513D

 70 70  0  0  0  0  0  0  0  0999 V2000
    0.2480    1.3900    0.4110 C   0  0  0  0  0  0  0  0  0  0  0  0
    0.1300   -0.0430    0.5040 O   0  0  0  0  0  0  0  0  0  0  0  0
    1.6730    1.7050    0.7590 *   0  0  0  0  0  0  0  0  0  0  0  0
   -0.2240    1.8280   -1.0220 C   0  0  0  0  0  0  0  0  0  0  0  0
   -0.6480    2.0620    1.5150 C   0  0  0  0  0  0  0  0  0  0  0  0
    1.1710   -0.5000    1.3660 C   0  0  0  0  0  0  0  0  0  0  0  0
    2.3730    0.4260    1.0600 C   0  0  0  0  0  0  0  0  0  0  0  0
    2.3340    2.5480   -0.0820 O   0  0  0  0  0  0  0  0  0  0  0  0
    0.4930    1.1630   -2.2310 C   0  0  0  0  0  0  0  0  0  0  0  0
   -2.1390    1.6220    1.5720 C   0  0  0  0  0  0  0  0  0  0  0  0
    3.2230   -0.1510   -0.1180 C   0  0  0  0  0  0  0  0  0  0  0  0
    3.2830    0.6170    2.3090 C   0  0  0  0  0  0  0  0  0  0  0  0
   -0.1050    1.6000   -3.5950 C   0  0  0  0  0  0  0  0  0  0  0  0
   -2.8880    2.2060    2.8000 C   0  0  0  0  0  0  0  0  0  0  0  0
    0.6150    0.9400   -4.8010 C   0  0  0  0  0  0  0  0  0  0  0  0
   -4.3800    1.7800    2.8500 C   0  0  0  0  0  0  0  0  0  0  0  0
    0.0190    1.3770   -6.1650 C   0  0  0  0  0  0  0  0  0  0  0  0
   -5.1250    2.3630    4.0790 C   0  0  0  0  0  0  0  0  0  0  0  0
    0.7360    0.7140   -7.3700 C   0  0  0  0  0  0  0  0  0  0  0  0
   -6.6100    1.9420    4.1310 C   0  0  0  0  0  0  0  0  0  0  0  0
    0.1400    1.1520   -8.7340 C   0  0  0  0  0  0  0  0  0  0  0  0
    0.8560    0.4850   -9.9400 C   0  0  0  0  0  0  0  0  0  0  0  0
    0.2610    0.9240  -11.3040 C   0  0  0  0  0  0  0  0  0  0  0  0
    0.9750    0.2560  -12.5090 C   0  0  0  0  0  0  0  0  0  0  0  0
    0.4470    0.6410  -13.8330 C   0  0  0  0  0  0  0  0  0  0  0  0
    1.0020    0.1120  -14.9460 O   0  0  0  0  0  0  0  0  0  0  0  0
   -0.5790    1.5100  -13.9860 O   0  0  0  0  0  0  0  0  0  0  0  0
   -1.2840    1.5910   -1.1280 H   0  0  0  0  0  0  0  0  0  0  0  0
   -0.1220    2.9130   -1.1100 H   0  0  0  0  0  0  0  0  0  0  0  0
   -0.2130    1.8460    2.4950 H   0  0  0  0  0  0  0  0  0  0  0  0
   -0.6090    3.1480    1.3850 H   0  0  0  0  0  0  0  0  0  0  0  0
    0.8380   -0.4140    2.4050 H   0  0  0  0  0  0  0  0  0  0  0  0
    1.3860   -1.5530    1.1670 H   0  0  0  0  0  0  0  0  0  0  0  0
    3.1890    2.7290    0.3600 H   0  0  0  0  0  0  0  0  0  0  0  0
    1.5500    1.4300   -2.2220 H   0  0  0  0  0  0  0  0  0  0  0  0
    0.4080    0.0770   -2.1440 H   0  0  0  0  0  0  0  0  0  0  0  0
   -2.6550    1.9550    0.6690 H   0  0  0  0  0  0  0  0  0  0  0  0
   -2.1920    0.5310    1.6140 H   0  0  0  0  0  0  0  0  0  0  0  0
    3.7050   -1.0850    0.1810 H   0  0  0  0  0  0  0  0  0  0  0  0
    2.6010   -0.3640   -0.9860 H   0  0  0  0  0  0  0  0  0  0  0  0
    4.0030    0.5520   -0.4150 H   0  0  0  0  0  0  0  0  0  0  0  0
    3.7080   -0.3380    2.6250 H   0  0  0  0  0  0  0  0  0  0  0  0
    4.1010    1.3040    2.0810 H   0  0  0  0  0  0  0  0  0  0  0  0
    2.7150    1.0320    3.1450 H   0  0  0  0  0  0  0  0  0  0  0  0
   -1.1640    1.3310   -3.6240 H   0  0  0  0  0  0  0  0  0  0  0  0
   -0.0270    2.6870   -3.6860 H   0  0  0  0  0  0  0  0  0  0  0  0
   -2.3930    1.8670    3.7140 H   0  0  0  0  0  0  0  0  0  0  0  0
   -2.8310    3.2980    2.7650 H   0  0  0  0  0  0  0  0  0  0  0  0
    1.6750    1.2080   -4.7740 H   0  0  0  0  0  0  0  0  0  0  0  0
    0.5360   -0.1470   -4.7100 H   0  0  0  0  0  0  0  0  0  0  0  0
   -4.8780    2.1200    1.9370 H   0  0  0  0  0  0  0  0  0  0  0  0
   -4.4380    0.6890    2.8830 H   0  0  0  0  0  0  0  0  0  0  0  0
   -1.0420    1.1110   -6.1920 H   0  0  0  0  0  0  0  0  0  0  0  0
    0.1000    2.4640   -6.2570 H   0  0  0  0  0  0  0  0  0  0  0  0
   -4.6340    2.0240    4.9950 H   0  0  0  0  0  0  0  0  0  0  0  0
   -5.0740    3.4550    4.0500 H   0  0  0  0  0  0  0  0  0  0  0  0
    1.7970    0.9790   -7.3430 H   0  0  0  0  0  0  0  0  0  0  0  0
    0.6540   -0.3730   -7.2790 H   0  0  0  0  0  0  0  0  0  0  0  0
   -7.0860    2.3770    5.0120 H   0  0  0  0  0  0  0  0  0  0  0  0
   -7.1370    2.2920    3.2420 H   0  0  0  0  0  0  0  0  0  0  0  0
   -6.6950    0.8550    4.1910 H   0  0  0  0  0  0  0  0  0  0  0  0
   -0.9210    0.8880   -8.7600 H   0  0  0  0  0  0  0  0  0  0  0  0
    0.2250    2.2380   -8.8270 H   0  0  0  0  0  0  0  0  0  0  0  0
    1.9170    0.7480   -9.9130 H   0  0  0  0  0  0  0  0  0  0  0  0
    0.7700   -0.6010   -9.8470 H   0  0  0  0  0  0  0  0  0  0  0  0
   -0.8010    0.6630  -11.3290 H   0  0  0  0  0  0  0  0  0  0  0  0
    0.3480    2.0110  -11.3960 H   0  0  0  0  0  0  0  0  0  0  0  0
    2.0360    0.5150  -12.4830 H   0  0  0  0  0  0  0  0  0  0  0  0
    0.8870   -0.8300  -12.4170 H   0  0  0  0  0  0  0  0  0  0  0  0
    1.6360    2.2110    1.6460 H   0  0  0  0  0  0  0  0  0  0  0  0
  1  4  1  0  0  0  0
  1  2  1  0  0  0  0
  1  3  1  0  0  0  0
  1  5  1  0  0  0  0
  2  6  1  0  0  0  0
  3  7  1  0  0  0  0
  3 70  1  0  0  0  0
  3  8  1  0  0  0  0
  4  9  1  0  0  0  0
  4 28  1  0  0  0  0
  4 29  1  0  0  0  0
  5 10  1  0  0  0  0
  5 30  1  0  0  0  0
  5 31  1  0  0  0  0
  6 32  1  0  0  0  0
  6  7  1  0  0  0  0
  6 33  1  0  0  0  0
  7 12  1  0  0  0  0
  7 11  1  0  0  0  0
  8 34  1  0  0  0  0
  9 35  1  0  0  0  0
  9 36  1  0  0  0  0
  9 13  1  0  0  0  0
 10 38  1  0  0  0  0
 10 14  1  0  0  0  0
 10 37  1  0  0  0  0
 11 39  1  0  0  0  0
 11 40  1  0  0  0  0
 11 41  1  0  0  0  0
 12 42  1  0  0  0  0
 12 44  1  0  0  0  0
 12 43  1  0  0  0  0
 13 15  1  0  0  0  0
 13 45  1  0  0  0  0
 13 46  1  0  0  0  0
 14 16  1  0  0  0  0
 14 47  1  0  0  0  0
 14 48  1  0  0  0  0
 15 49  1  0  0  0  0
 15 50  1  0  0  0  0
 15 17  1  0  0  0  0
 16 52  1  0  0  0  0
 16 18  1  0  0  0  0
 16 51  1  0  0  0  0
 17 19  1  0  0  0  0
 17 53  1  0  0  0  0
 17 54  1  0  0  0  0
 18 20  1  0  0  0  0
 18 55  1  0  0  0  0
 18 56  1  0  0  0  0
 19 57  1  0  0  0  0
 19 58  1  0  0  0  0
 19 21  1  0  0  0  0
 20 61  1  0  0  0  0
 20 59  1  0  0  0  0
 20 60  1  0  0  0  0
 21 22  1  0  0  0  0
 21 62  1  0  0  0  0
 21 63  1  0  0  0  0
 22 64  1  0  0  0  0
 22 65  1  0  0  0  0
 22 23  1  0  0  0  0
 23 24  1  0  0  0  0
 23 66  1  0  0  0  0
 23 67  1  0  0  0  0
 24 68  1  0  0  0  0
 24 69  1  0  0  0  0
 24 25  1  0  0  0  0
 25 26  2  0  0  0  0
 25 27  1  0  0  0  0
M  END
