decoy-697
 OpenBabel06062114513D

 68 67  0  0  0  0  0  0  0  0999 V2000
    0.0010    1.5370    0.0090 C   0  0  0  0  0  0  0  0  0  0  0  0
   -0.0210   -0.0150    0.0010 C   0  0  0  0  0  0  0  0  0  0  0  0
    1.4410    2.1140   -0.0020 C   0  0  0  0  0  0  0  0  0  0  0  0
   -1.4610   -0.5920    0.0120 C   0  0  0  0  0  0  0  0  0  0  0  0
    1.4620    3.6660    0.0070 C   0  0  0  0  0  0  0  0  0  0  0  0
   -1.4820   -2.1440    0.0030 C   0  0  0  0  0  0  0  0  0  0  0  0
    2.9030    4.2430   -0.0040 C   0  0  0  0  0  0  0  0  0  0  0  0
   -2.9220   -2.7210    0.0140 C   0  0  0  0  0  0  0  0  0  0  0  0
    2.9250    5.7940    0.0050 C   0  0  0  0  0  0  0  0  0  0  0  0
   -2.9430   -4.2730    0.0060 C   0  0  0  0  0  0  0  0  0  0  0  0
    4.3650    6.3710   -0.0070 C   0  0  0  0  0  0  0  0  0  0  0  0
   -4.3830   -4.8510    0.0170 C   0  0  0  0  0  0  0  0  0  0  0  0
    4.3870    7.9230    0.0020 C   0  0  0  0  0  0  0  0  0  0  0  0
   -4.4040   -6.4020    0.0080 C   0  0  0  0  0  0  0  0  0  0  0  0
    5.8270    8.5000   -0.0090 C   0  0  0  0  0  0  0  0  0  0  0  0
   -5.8440   -6.9800    0.0190 C   0  0  0  0  0  0  0  0  0  0  0  0
    5.8490   10.0510    0.0000 C   0  0  0  0  0  0  0  0  0  0  0  0
   -5.8650   -8.5320    0.0110 C   0  0  0  0  0  0  0  0  0  0  0  0
    7.2890   10.6270   -0.0110 C   0  0  0  0  0  0  0  0  0  0  0  0
   -7.3050   -9.1090    0.0220 C   0  0  0  0  0  0  0  0  0  0  0  0
    7.3120   12.1720   -0.0030 C   0  0  0  0  0  0  0  0  0  0  0  0
   -7.3280  -10.6530    0.0140 C   0  0  0  0  0  0  0  0  0  0  0  0
    9.1300   12.8180   -0.0170 Br  0  0  0  0  0  0  0  0  0  0  0  0
   -0.5370    1.9050   -0.8690 H   0  0  0  0  0  0  0  0  0  0  0  0
   -0.5190    1.8950    0.9020 H   0  0  0  0  0  0  0  0  0  0  0  0
    0.4990   -0.3730   -0.8920 H   0  0  0  0  0  0  0  0  0  0  0  0
    0.5170   -0.3830    0.8790 H   0  0  0  0  0  0  0  0  0  0  0  0
    1.9790    1.7460    0.8760 H   0  0  0  0  0  0  0  0  0  0  0  0
    1.9610    1.7560   -0.8950 H   0  0  0  0  0  0  0  0  0  0  0  0
   -1.9810   -0.2340    0.9050 H   0  0  0  0  0  0  0  0  0  0  0  0
   -1.9990   -0.2240   -0.8670 H   0  0  0  0  0  0  0  0  0  0  0  0
    0.9250    4.0340   -0.8710 H   0  0  0  0  0  0  0  0  0  0  0  0
    0.9430    4.0240    0.9000 H   0  0  0  0  0  0  0  0  0  0  0  0
   -0.9620   -2.5020   -0.8900 H   0  0  0  0  0  0  0  0  0  0  0  0
   -0.9440   -2.5120    0.8820 H   0  0  0  0  0  0  0  0  0  0  0  0
    3.4410    3.8740    0.8740 H   0  0  0  0  0  0  0  0  0  0  0  0
    3.4230    3.8850   -0.8970 H   0  0  0  0  0  0  0  0  0  0  0  0
   -3.4420   -2.3630    0.9070 H   0  0  0  0  0  0  0  0  0  0  0  0
   -3.4600   -2.3540   -0.8640 H   0  0  0  0  0  0  0  0  0  0  0  0
    2.3870    6.1630   -0.8740 H   0  0  0  0  0  0  0  0  0  0  0  0
    2.4050    6.1520    0.8980 H   0  0  0  0  0  0  0  0  0  0  0  0
   -2.4230   -4.6310   -0.8870 H   0  0  0  0  0  0  0  0  0  0  0  0
   -2.4050   -4.6410    0.8840 H   0  0  0  0  0  0  0  0  0  0  0  0
    4.9030    6.0030    0.8720 H   0  0  0  0  0  0  0  0  0  0  0  0
    4.8850    6.0130   -0.9000 H   0  0  0  0  0  0  0  0  0  0  0  0
   -4.9030   -4.4930    0.9100 H   0  0  0  0  0  0  0  0  0  0  0  0
   -4.9210   -4.4830   -0.8620 H   0  0  0  0  0  0  0  0  0  0  0  0
    3.8490    8.2910   -0.8760 H   0  0  0  0  0  0  0  0  0  0  0  0
    3.8670    8.2810    0.8950 H   0  0  0  0  0  0  0  0  0  0  0  0
   -3.8830   -6.7600   -0.8850 H   0  0  0  0  0  0  0  0  0  0  0  0
   -3.8660   -6.7700    0.8870 H   0  0  0  0  0  0  0  0  0  0  0  0
    6.3650    8.1310    0.8690 H   0  0  0  0  0  0  0  0  0  0  0  0
    6.3470    8.1420   -0.9020 H   0  0  0  0  0  0  0  0  0  0  0  0
   -6.3640   -6.6220    0.9120 H   0  0  0  0  0  0  0  0  0  0  0  0
   -6.3820   -6.6130   -0.8590 H   0  0  0  0  0  0  0  0  0  0  0  0
    5.3120   10.4200   -0.8780 H   0  0  0  0  0  0  0  0  0  0  0  0
    5.3300   10.4100    0.8930 H   0  0  0  0  0  0  0  0  0  0  0  0
   -5.3450   -8.8900   -0.8820 H   0  0  0  0  0  0  0  0  0  0  0  0
   -5.3270   -8.9000    0.8900 H   0  0  0  0  0  0  0  0  0  0  0  0
    7.8300   10.2640    0.8670 H   0  0  0  0  0  0  0  0  0  0  0  0
    7.8120   10.2740   -0.9050 H   0  0  0  0  0  0  0  0  0  0  0  0
   -7.8300   -8.7570    0.9140 H   0  0  0  0  0  0  0  0  0  0  0  0
   -7.8470   -8.7470   -0.8560 H   0  0  0  0  0  0  0  0  0  0  0  0
    6.8000   12.5630   -0.8830 H   0  0  0  0  0  0  0  0  0  0  0  0
    6.8180   12.5530    0.8930 H   0  0  0  0  0  0  0  0  0  0  0  0
   -8.3610  -11.0060    0.0220 H   0  0  0  0  0  0  0  0  0  0  0  0
   -6.8360  -11.0370   -0.8820 H   0  0  0  0  0  0  0  0  0  0  0  0
   -6.8190  -11.0470    0.8950 H   0  0  0  0  0  0  0  0  0  0  0  0
  1 25  1  0  0  0  0
  1  2  1  0  0  0  0
  1  3  1  0  0  0  0
  1 24  1  0  0  0  0
  2  4  1  0  0  0  0
  2 27  1  0  0  0  0
  2 26  1  0  0  0  0
  3  5  1  0  0  0  0
  3 28  1  0  0  0  0
  3 29  1  0  0  0  0
  4 30  1  0  0  0  0
  4  6  1  0  0  0  0
  4 31  1  0  0  0  0
  5 33  1  0  0  0  0
  5  7  1  0  0  0  0
  5 32  1  0  0  0  0
  6  8  1  0  0  0  0
  6 35  1  0  0  0  0
  6 34  1  0  0  0  0
  7  9  1  0  0  0  0
  7 36  1  0  0  0  0
  7 37  1  0  0  0  0
  8 38  1  0  0  0  0
  8 10  1  0  0  0  0
  8 39  1  0  0  0  0
  9 41  1  0  0  0  0
  9 11  1  0  0  0  0
  9 40  1  0  0  0  0
 10 12  1  0  0  0  0
 10 43  1  0  0  0  0
 10 42  1  0  0  0  0
 11 13  1  0  0  0  0
 11 44  1  0  0  0  0
 11 45  1  0  0  0  0
 12 46  1  0  0  0  0
 12 14  1  0  0  0  0
 12 47  1  0  0  0  0
 13 49  1  0  0  0  0
 13 15  1  0  0  0  0
 13 48  1  0  0  0  0
 14 16  1  0  0  0  0
 14 51  1  0  0  0  0
 14 50  1  0  0  0  0
 15 17  1  0  0  0  0
 15 52  1  0  0  0  0
 15 53  1  0  0  0  0
 16 54  1  0  0  0  0
 16 18  1  0  0  0  0
 16 55  1  0  0  0  0
 17 57  1  0  0  0  0
 17 19  1  0  0  0  0
 17 56  1  0  0  0  0
 18 20  1  0  0  0  0
 18 59  1  0  0  0  0
 18 58  1  0  0  0  0
 19 21  1  0  0  0  0
 19 60  1  0  0  0  0
 19 61  1  0  0  0  0
 20 62  1  0  0  0  0
 20 22  1  0  0  0  0
 20 63  1  0  0  0  0
 21 65  1  0  0  0  0
 21 23  1  0  0  0  0
 21 64  1  0  0  0  0
 22 66  1  0  0  0  0
 22 68  1  0  0  0  0
 22 67  1  0  0  0  0
M  END
