decoy-96
 OpenBabel06062114503D

 48 48  0  0  0  0  0  0  0  0999 V2000
   -0.0960    1.6830   -0.3770 C   0  0  0  0  0  0  0  0  0  0  0  0
   -0.5090    0.6860   -1.3400 O   0  0  0  0  0  0  0  0  0  0  0  0
    1.4380    1.9390   -0.4240 C   0  0  0  0  0  0  0  0  0  0  0  0
   -0.6820    1.3370    1.3070 S   0  0  0  0  0  0  0  0  0  0  0  0
    0.1940   -0.5780   -1.4260 C   0  0  0  0  0  0  0  0  0  0  0  0
    2.2580    0.6200   -0.4180 C   0  0  0  0  0  0  0  0  0  0  0  0
    1.7590    2.6810   -1.6010 O   0  0  0  0  0  0  0  0  0  0  0  0
   -2.4650    1.4440    1.0050 C   0  0  0  0  0  0  0  0  0  0  0  0
    1.7410   -0.3850   -1.4840 C   0  0  0  0  0  0  0  0  0  0  0  0
   -0.2700   -1.6190   -0.3720 C   0  0  0  0  0  0  0  0  0  0  0  0
    2.2420    0.0220    0.8770 O   0  0  0  0  0  0  0  0  0  0  0  0
   -3.2550    1.0880    2.2870 C   0  0  0  0  0  0  0  0  0  0  0  0
    2.1120    0.0860   -2.7810 O   0  0  0  0  0  0  0  0  0  0  0  0
   -1.6870   -1.7520   -0.3900 O   0  0  0  0  0  0  0  0  0  0  0  0
   -4.7910    1.1700    2.0800 C   0  0  0  0  0  0  0  0  0  0  0  0
   -5.5850    0.8050    3.3620 C   0  0  0  0  0  0  0  0  0  0  0  0
   -7.1210    0.8960    3.1590 C   0  0  0  0  0  0  0  0  0  0  0  0
   -7.9150    0.5250    4.4390 C   0  0  0  0  0  0  0  0  0  0  0  0
   -9.4500    0.6220    4.2370 C   0  0  0  0  0  0  0  0  0  0  0  0
  -10.2440    0.2490    5.5090 C   0  0  0  0  0  0  0  0  0  0  0  0
   -0.5850    2.6140   -0.6730 H   0  0  0  0  0  0  0  0  0  0  0  0
    1.7390    2.5570    0.4270 H   0  0  0  0  0  0  0  0  0  0  0  0
   -0.1110   -1.0020   -2.3880 H   0  0  0  0  0  0  0  0  0  0  0  0
    3.3050    0.8530   -0.6330 H   0  0  0  0  0  0  0  0  0  0  0  0
    1.2660    3.5250   -1.5150 H   0  0  0  0  0  0  0  0  0  0  0  0
   -2.7100    2.4620    0.6930 H   0  0  0  0  0  0  0  0  0  0  0  0
   -2.7400    0.7540    0.2050 H   0  0  0  0  0  0  0  0  0  0  0  0
    2.2440   -1.3460   -1.3460 H   0  0  0  0  0  0  0  0  0  0  0  0
    0.1640   -2.5950   -0.6000 H   0  0  0  0  0  0  0  0  0  0  0  0
    0.0410   -1.3390    0.6330 H   0  0  0  0  0  0  0  0  0  0  0  0
    2.6350    0.6940    1.4730 H   0  0  0  0  0  0  0  0  0  0  0  0
   -2.9900    0.0730    2.5950 H   0  0  0  0  0  0  0  0  0  0  0  0
   -2.9650    1.7760    3.0860 H   0  0  0  0  0  0  0  0  0  0  0  0
    1.8260   -0.6170   -3.4010 H   0  0  0  0  0  0  0  0  0  0  0  0
   -1.8850   -2.4340    0.2860 H   0  0  0  0  0  0  0  0  0  0  0  0
   -5.0550    2.1860    1.7740 H   0  0  0  0  0  0  0  0  0  0  0  0
   -5.0790    0.4860    1.2760 H   0  0  0  0  0  0  0  0  0  0  0  0
   -5.3250   -0.2140    3.6630 H   0  0  0  0  0  0  0  0  0  0  0  0
   -5.2920    1.4840    4.1670 H   0  0  0  0  0  0  0  0  0  0  0  0
   -7.3810    1.9160    2.8620 H   0  0  0  0  0  0  0  0  0  0  0  0
   -7.4130    0.2200    2.3500 H   0  0  0  0  0  0  0  0  0  0  0  0
   -7.6590   -0.4970    4.7340 H   0  0  0  0  0  0  0  0  0  0  0  0
   -7.6200    1.1980    5.2500 H   0  0  0  0  0  0  0  0  0  0  0  0
   -9.7140    1.6430    3.9490 H   0  0  0  0  0  0  0  0  0  0  0  0
   -9.7520   -0.0490    3.4280 H   0  0  0  0  0  0  0  0  0  0  0  0
  -11.3150    0.3360    5.3150 H   0  0  0  0  0  0  0  0  0  0  0  0
  -10.0260   -0.7790    5.8070 H   0  0  0  0  0  0  0  0  0  0  0  0
   -9.9840    0.9200    6.3310 H   0  0  0  0  0  0  0  0  0  0  0  0
  1  3  1  0  0  0  0
  1  4  1  0  0  0  0
  1  2  1  0  0  0  0
  1 21  1  0  0  0  0
  2  5  1  0  0  0  0
  3  6  1  0  0  0  0
  3 22  1  0  0  0  0
  3  7  1  0  0  0  0
  4  8  1  0  0  0  0
  5  9  1  0  0  0  0
  5 10  1  0  0  0  0
  5 23  1  0  0  0  0
  6  9  1  0  0  0  0
  6 11  1  0  0  0  0
  6 24  1  0  0  0  0
  7 25  1  0  0  0  0
  8 12  1  0  0  0  0
  8 26  1  0  0  0  0
  8 27  1  0  0  0  0
  9 28  1  0  0  0  0
  9 13  1  0  0  0  0
 10 30  1  0  0  0  0
 10 14  1  0  0  0  0
 10 29  1  0  0  0  0
 11 31  1  0  0  0  0
 12 32  1  0  0  0  0
 12 33  1  0  0  0  0
 12 15  1  0  0  0  0
 13 34  1  0  0  0  0
 14 35  1  0  0  0  0
 15 16  1  0  0  0  0
 15 36  1  0  0  0  0
 15 37  1  0  0  0  0
 16 38  1  0  0  0  0
 16 39  1  0  0  0  0
 16 17  1  0  0  0  0
 17 18  1  0  0  0  0
 17 40  1  0  0  0  0
 17 41  1  0  0  0  0
 18 42  1  0  0  0  0
 18 43  1  0  0  0  0
 18 19  1  0  0  0  0
 19 20  1  0  0  0  0
 19 44  1  0  0  0  0
 19 45  1  0  0  0  0
 20 47  1  0  0  0  0
 20 48  1  0  0  0  0
 20 46  1  0  0  0  0
M  END
