decoy-675
 OpenBabel06062114513D

 76 78  0  0  0  0  0  0  0  0999 V2000
    0.1170    1.5630   -0.3260 C   0  0  0  0  0  0  0  0  0  0  0  0
   -0.0330    0.0110   -0.4440 C   0  0  0  0  0  0  0  0  0  0  0  0
    1.6100    1.9810   -0.2040 C   0  0  0  0  0  0  0  0  0  0  0  0
   -0.5430    2.0810    0.8510 O   0  0  0  0  0  0  0  0  0  0  0  0
    0.8660   -0.5630   -1.5790 C   0  0  0  0  0  0  0  0  0  0  0  0
    0.2520   -0.5530    0.8560 O   0  0  0  0  0  0  0  0  0  0  0  0
    2.4870    1.3960   -1.3400 C   0  0  0  0  0  0  0  0  0  0  0  0
   -1.9780    2.1890    0.8410 C   0  0  0  0  0  0  0  0  0  0  0  0
    2.3490   -0.1440   -1.4250 C   0  0  0  0  0  0  0  0  0  0  0  0
   -0.0990   -1.9290    1.0960 C   0  0  0  0  0  0  0  0  0  0  0  0
   -2.4410    2.5290    2.2700 C   0  0  0  0  0  0  0  0  0  0  0  0
   -0.3770   -2.1030    2.6010 C   0  0  0  0  0  0  0  0  0  0  0  0
   -3.8800    2.5970    2.3240 O   0  0  0  0  0  0  0  0  0  0  0  0
   -0.7260   -3.4750    2.8780 O   0  0  0  0  0  0  0  0  0  0  0  0
   -4.4110    2.6920    3.6600 C   0  0  0  0  0  0  0  0  0  0  0  0
   -1.5910   -3.7060    4.0090 C   0  0  0  0  0  0  0  0  0  0  0  0
   -5.9530    2.7880    3.6200 C   0  0  0  0  0  0  0  0  0  0  0  0
   -0.9590   -3.3800    5.3870 C   0  0  0  0  0  0  0  0  0  0  0  0
   -6.5100    2.6960    4.9480 O   0  0  0  0  0  0  0  0  0  0  0  0
   -1.8990   -3.5450    6.4710 O   0  0  0  0  0  0  0  0  0  0  0  0
   -6.7760    1.3630    5.4320 C   0  0  0  0  0  0  0  0  0  0  0  0
   -2.7630   -2.4180    6.7210 C   0  0  0  0  0  0  0  0  0  0  0  0
   -6.7660    1.3480    6.9720 C   0  0  0  0  0  0  0  0  0  0  0  0
   -3.8240   -2.7690    7.7820 C   0  0  0  0  0  0  0  0  0  0  0  0
   -6.8640   -0.0210    7.4020 O   0  0  0  0  0  0  0  0  0  0  0  0
   -4.7410   -1.6640    7.8540 O   0  0  0  0  0  0  0  0  0  0  0  0
   -6.5220   -0.3360    8.7720 C   0  0  0  0  0  0  0  0  0  0  0  0
   -5.8740   -1.7510    8.7450 C   0  0  0  0  0  0  0  0  0  0  0  0
   -7.7740   -0.2670    9.7040 C   0  0  0  0  0  0  0  0  0  0  0  0
   -6.9010   -2.8510    8.3150 C   0  0  0  0  0  0  0  0  0  0  0  0
   -8.4990   -1.6270    9.9240 C   0  0  0  0  0  0  0  0  0  0  0  0
   -8.3830   -2.5510    8.6890 C   0  0  0  0  0  0  0  0  0  0  0  0
   -0.2950    2.0380   -1.2230 H   0  0  0  0  0  0  0  0  0  0  0  0
   -1.0730   -0.2020   -0.7060 H   0  0  0  0  0  0  0  0  0  0  0  0
    1.6820    3.0720   -0.2280 H   0  0  0  0  0  0  0  0  0  0  0  0
    2.0070    1.6440    0.7580 H   0  0  0  0  0  0  0  0  0  0  0  0
    0.7990   -1.6530   -1.5930 H   0  0  0  0  0  0  0  0  0  0  0  0
    0.4940   -0.2030   -2.5430 H   0  0  0  0  0  0  0  0  0  0  0  0
    2.1910    1.8430   -2.2940 H   0  0  0  0  0  0  0  0  0  0  0  0
    3.5340    1.6550   -1.1590 H   0  0  0  0  0  0  0  0  0  0  0  0
   -2.2880    2.9780    0.1520 H   0  0  0  0  0  0  0  0  0  0  0  0
   -2.4460    1.2490    0.5410 H   0  0  0  0  0  0  0  0  0  0  0  0
    2.7660   -0.6000   -0.5230 H   0  0  0  0  0  0  0  0  0  0  0  0
    2.9190   -0.5110   -2.2820 H   0  0  0  0  0  0  0  0  0  0  0  0
   -0.9970   -2.2240    0.5450 H   0  0  0  0  0  0  0  0  0  0  0  0
    0.7290   -2.5740    0.7930 H   0  0  0  0  0  0  0  0  0  0  0  0
   -2.0650    1.7500    2.9420 H   0  0  0  0  0  0  0  0  0  0  0  0
   -2.0140    3.4900    2.5690 H   0  0  0  0  0  0  0  0  0  0  0  0
    0.5170   -1.8380    3.1700 H   0  0  0  0  0  0  0  0  0  0  0  0
   -1.1830   -1.4130    2.8740 H   0  0  0  0  0  0  0  0  0  0  0  0
   -4.1200    1.8060    4.2300 H   0  0  0  0  0  0  0  0  0  0  0  0
   -4.0170    3.5770    4.1680 H   0  0  0  0  0  0  0  0  0  0  0  0
   -2.5200   -3.1500    3.8670 H   0  0  0  0  0  0  0  0  0  0  0  0
   -1.8520   -4.7660    4.0000 H   0  0  0  0  0  0  0  0  0  0  0  0
   -6.2260    3.7640    3.2140 H   0  0  0  0  0  0  0  0  0  0  0  0
   -6.3690    2.0260    2.9540 H   0  0  0  0  0  0  0  0  0  0  0  0
   -0.1390   -4.0810    5.5570 H   0  0  0  0  0  0  0  0  0  0  0  0
   -0.5310   -2.3740    5.3920 H   0  0  0  0  0  0  0  0  0  0  0  0
   -7.7530    1.0390    5.0660 H   0  0  0  0  0  0  0  0  0  0  0  0
   -6.0240    0.6480    5.0840 H   0  0  0  0  0  0  0  0  0  0  0  0
   -2.1720   -1.5700    7.0790 H   0  0  0  0  0  0  0  0  0  0  0  0
   -3.2830   -2.1170    5.8080 H   0  0  0  0  0  0  0  0  0  0  0  0
   -5.8280    1.7980    7.3100 H   0  0  0  0  0  0  0  0  0  0  0  0
   -7.6030    1.9310    7.3630 H   0  0  0  0  0  0  0  0  0  0  0  0
   -4.3410   -3.6820    7.4770 H   0  0  0  0  0  0  0  0  0  0  0  0
   -3.3420   -2.9330    8.7490 H   0  0  0  0  0  0  0  0  0  0  0  0
   -5.7650    0.3610    9.1510 H   0  0  0  0  0  0  0  0  0  0  0  0
   -5.5160   -1.9720    9.7570 H   0  0  0  0  0  0  0  0  0  0  0  0
   -7.4720    0.1170   10.6830 H   0  0  0  0  0  0  0  0  0  0  0  0
   -8.4860    0.4500    9.2890 H   0  0  0  0  0  0  0  0  0  0  0  0
   -6.8480   -2.9920    7.2310 H   0  0  0  0  0  0  0  0  0  0  0  0
   -6.6050   -3.7960    8.7780 H   0  0  0  0  0  0  0  0  0  0  0  0
   -8.0570   -2.1390   10.7840 H   0  0  0  0  0  0  0  0  0  0  0  0
   -9.5540   -1.4490   10.1520 H   0  0  0  0  0  0  0  0  0  0  0  0
   -8.8790   -2.0630    7.8450 H   0  0  0  0  0  0  0  0  0  0  0  0
   -8.9110   -3.4890    8.8820 H   0  0  0  0  0  0  0  0  0  0  0  0
  1  2  1  0  0  0  0
  1  3  1  0  0  0  0
  1  4  1  0  0  0  0
  1 33  1  0  0  0  0
  2 34  1  0  0  0  0
  2  6  1  0  0  0  0
  2  5  1  0  0  0  0
  3 36  1  0  0  0  0
  3  7  1  0  0  0  0
  3 35  1  0  0  0  0
  4  8  1  0  0  0  0
  5  9  1  0  0  0  0
  5 37  1  0  0  0  0
  5 38  1  0  0  0  0
  6 10  1  0  0  0  0
  7 40  1  0  0  0  0
  7  9  1  0  0  0  0
  7 39  1  0  0  0  0
  8 11  1  0  0  0  0
  8 41  1  0  0  0  0
  8 42  1  0  0  0  0
  9 43  1  0  0  0  0
  9 44  1  0  0  0  0
 10 12  1  0  0  0  0
 10 45  1  0  0  0  0
 10 46  1  0  0  0  0
 11 13  1  0  0  0  0
 11 48  1  0  0  0  0
 11 47  1  0  0  0  0
 12 50  1  0  0  0  0
 12 14  1  0  0  0  0
 12 49  1  0  0  0  0
 13 15  1  0  0  0  0
 14 16  1  0  0  0  0
 15 52  1  0  0  0  0
 15 51  1  0  0  0  0
 15 17  1  0  0  0  0
 16 18  1  0  0  0  0
 16 53  1  0  0  0  0
 16 54  1  0  0  0  0
 17 19  1  0  0  0  0
 17 55  1  0  0  0  0
 17 56  1  0  0  0  0
 18 58  1  0  0  0  0
 18 57  1  0  0  0  0
 18 20  1  0  0  0  0
 19 21  1  0  0  0  0
 20 22  1  0  0  0  0
 21 23  1  0  0  0  0
 21 59  1  0  0  0  0
 21 60  1  0  0  0  0
 22 61  1  0  0  0  0
 22 24  1  0  0  0  0
 22 62  1  0  0  0  0
 23 63  1  0  0  0  0
 23 64  1  0  0  0  0
 23 25  1  0  0  0  0
 24 26  1  0  0  0  0
 24 66  1  0  0  0  0
 24 65  1  0  0  0  0
 25 27  1  0  0  0  0
 26 28  1  0  0  0  0
 27 28  1  0  0  0  0
 27 67  1  0  0  0  0
 27 29  1  0  0  0  0
 28 68  1  0  0  0  0
 28 30  1  0  0  0  0
 29 31  1  0  0  0  0
 29 69  1  0  0  0  0
 29 70  1  0  0  0  0
 30 32  1  0  0  0  0
 30 72  1  0  0  0  0
 30 71  1  0  0  0  0
 31 74  1  0  0  0  0
 31 73  1  0  0  0  0
 31 32  1  0  0  0  0
 32 76  1  0  0  0  0
 32 75  1  0  0  0  0
M  END
