decoy-663
 OpenBabel06062114513D

 12 12  0  0  0  0  0  0  0  0999 V2000
   -0.0390    1.3930    0.0070 C   0  0  0  0  0  0  0  0  0  0  0  0
   -0.0200   -0.0170    0.0000 C   0  0  0  0  0  0  0  0  0  0  0  0
    1.1720    2.1160    0.0000 C   0  0  0  0  0  0  0  0  0  0  0  0
   -1.1810    2.0270    0.0200 F   0  0  0  0  0  0  0  0  0  0  0  0
    1.2100   -0.7080   -0.0140 C   0  0  0  0  0  0  0  0  0  0  0  0
   -1.1440   -0.6830    0.0070 F   0  0  0  0  0  0  0  0  0  0  0  0
    2.4010    1.4260   -0.0140 C   0  0  0  0  0  0  0  0  0  0  0  0
    1.1460    3.9810    0.0090 Br  0  0  0  0  0  0  0  0  0  0  0  0
    2.4200    0.0160   -0.0210 C   0  0  0  0  0  0  0  0  0  0  0  0
    1.2350   -2.5730   -0.0240 Br  0  0  0  0  0  0  0  0  0  0  0  0
    3.5260    2.0910   -0.0210 F   0  0  0  0  0  0  0  0  0  0  0  0
    3.5630   -0.6190   -0.0350 F   0  0  0  0  0  0  0  0  0  0  0  0
  1  4  1  0  0  0  0
  1  2  2  0  0  0  0
  1  3  1  0  0  0  0
  2  6  1  0  0  0  0
  2  5  1  0  0  0  0
  3  8  1  0  0  0  0
  3  7  2  0  0  0  0
  5  9  2  0  0  0  0
  5 10  1  0  0  0  0
  7  9  1  0  0  0  0
  7 11  1  0  0  0  0
  9 12  1  0  0  0  0
M  END
