decoy-552
 OpenBabel06062114513D

 68 72  0  0  0  0  0  0  0  0999 V2000
   -1.1980    0.0180   -0.2010 C   0  0  0  0  0  0  0  0  0  0  0  0
   -0.4880    0.2590   -1.4100 C   0  0  0  0  0  0  0  0  0  0  0  0
   -0.6310   -0.7010    0.8340 O   0  0  0  0  0  0  0  0  0  0  0  0
   -2.5050    0.5090   -0.0300 C   0  0  0  0  0  0  0  0  0  0  0  0
    0.7970   -0.2950   -1.4940 C   0  0  0  0  0  0  0  0  0  0  0  0
   -1.1140    1.0290   -2.4270 C   0  0  0  0  0  0  0  0  0  0  0  0
    0.6470   -1.1330    0.7010 C   0  0  0  0  0  0  0  0  0  0  0  0
   -3.1310    1.2380   -1.0570 C   0  0  0  0  0  0  0  0  0  0  0  0
    1.3530   -0.9490   -0.4350 C   0  0  0  0  0  0  0  0  0  0  0  0
    1.4210   -0.2960   -2.5470 O   0  0  0  0  0  0  0  0  0  0  0  0
   -2.4250    1.5100   -2.2440 C   0  0  0  0  0  0  0  0  0  0  0  0
   -0.5010    1.3450   -3.5960 O   0  0  0  0  0  0  0  0  0  0  0  0
    1.1830   -1.8110    1.7830 C   0  0  0  0  0  0  0  0  0  0  0  0
   -4.3910    1.7350   -0.8710 O   0  0  0  0  0  0  0  0  0  0  0  0
    0.6240   -3.0430    2.1940 C   0  0  0  0  0  0  0  0  0  0  0  0
    2.2750   -1.2770    2.5060 C   0  0  0  0  0  0  0  0  0  0  0  0
   -5.4500    0.8430   -1.2720 C   0  0  0  0  0  0  0  0  0  0  0  0
    1.1550   -3.7330    3.3000 C   0  0  0  0  0  0  0  0  0  0  0  0
    2.8050   -1.9690    3.6110 C   0  0  0  0  0  0  0  0  0  0  0  0
   -6.7920    1.4440   -0.7760 C   0  0  0  0  0  0  0  0  0  0  0  0
   -5.4560    0.7200   -2.7120 O   0  0  0  0  0  0  0  0  0  0  0  0
    2.2470   -3.1980    4.0110 C   0  0  0  0  0  0  0  0  0  0  0  0
   -6.7770    1.4260    0.6680 O   0  0  0  0  0  0  0  0  0  0  0  0
   -7.9820    0.5970   -1.3090 C   0  0  0  0  0  0  0  0  0  0  0  0
   -6.4900   -0.1320   -3.2520 C   0  0  0  0  0  0  0  0  0  0  0  0
    2.7700   -3.8520    5.0790 O   0  0  0  0  0  0  0  0  0  0  0  0
   -7.2280    2.6160    1.3500 C   0  0  0  0  0  0  0  0  0  0  0  0
   -7.8940    0.4060   -2.8480 C   0  0  0  0  0  0  0  0  0  0  0  0
   -9.2230    1.2180   -0.9790 O   0  0  0  0  0  0  0  0  0  0  0  0
   -6.3000   -0.1950   -4.7870 C   0  0  0  0  0  0  0  0  0  0  0  0
   -7.2350    2.4080    2.8720 C   0  0  0  0  0  0  0  0  0  0  0  0
   -6.3260    3.7110    1.1610 O   0  0  0  0  0  0  0  0  0  0  0  0
   -8.9130   -0.4950   -3.2820 O   0  0  0  0  0  0  0  0  0  0  0  0
   -5.0110   -0.7080   -5.1090 O   0  0  0  0  0  0  0  0  0  0  0  0
   -5.7640    2.6790    3.2790 C   0  0  0  0  0  0  0  0  0  0  0  0
   -7.7490    1.1300    3.2480 O   0  0  0  0  0  0  0  0  0  0  0  0
   -5.2410    3.5170    2.0780 C   0  0  0  0  0  0  0  0  0  0  0  0
   -4.9230    1.3910    3.5230 C   0  0  0  0  0  0  0  0  0  0  0  0
   -5.7320    3.4590    4.4780 O   0  0  0  0  0  0  0  0  0  0  0  0
   -3.5660    1.7110    3.8160 O   0  0  0  0  0  0  0  0  0  0  0  0
   -3.0040    0.3300    0.8440 H   0  0  0  0  0  0  0  0  0  0  0  0
    2.2830   -1.3010   -0.5060 H   0  0  0  0  0  0  0  0  0  0  0  0
   -2.8710    2.0660   -2.9780 H   0  0  0  0  0  0  0  0  0  0  0  0
    0.4380    1.5020   -3.3670 H   0  0  0  0  0  0  0  0  0  0  0  0
   -0.1700   -3.4480    1.6910 H   0  0  0  0  0  0  0  0  0  0  0  0
    2.6910   -0.3820    2.2350 H   0  0  0  0  0  0  0  0  0  0  0  0
   -5.3090   -0.1430   -0.8100 H   0  0  0  0  0  0  0  0  0  0  0  0
    0.7430   -4.6240    3.5860 H   0  0  0  0  0  0  0  0  0  0  0  0
    3.5960   -1.5750    4.1250 H   0  0  0  0  0  0  0  0  0  0  0  0
   -6.8730    2.4620   -1.1790 H   0  0  0  0  0  0  0  0  0  0  0  0
   -7.9650   -0.3860   -0.8290 H   0  0  0  0  0  0  0  0  0  0  0  0
   -6.3660   -1.1470   -2.8580 H   0  0  0  0  0  0  0  0  0  0  0  0
    2.2420   -4.6720    5.1750 H   0  0  0  0  0  0  0  0  0  0  0  0
   -8.2280    2.8950    1.0070 H   0  0  0  0  0  0  0  0  0  0  0  0
   -8.0630    1.3710   -3.3350 H   0  0  0  0  0  0  0  0  0  0  0  0
   -9.2560    1.2190    0.0010 H   0  0  0  0  0  0  0  0  0  0  0  0
   -7.0510   -0.8490   -5.2350 H   0  0  0  0  0  0  0  0  0  0  0  0
   -6.3970    0.8020   -5.2220 H   0  0  0  0  0  0  0  0  0  0  0  0
   -7.8860    3.1680    3.3180 H   0  0  0  0  0  0  0  0  0  0  0  0
   -9.7580   -0.0660   -3.0310 H   0  0  0  0  0  0  0  0  0  0  0  0
   -4.9800   -0.7130   -6.0880 H   0  0  0  0  0  0  0  0  0  0  0  0
   -8.6680    1.1170    2.9070 H   0  0  0  0  0  0  0  0  0  0  0  0
   -4.4260    3.0160    1.5510 H   0  0  0  0  0  0  0  0  0  0  0  0
   -4.8780    4.4960    2.3990 H   0  0  0  0  0  0  0  0  0  0  0  0
   -5.3290    0.8330    4.3690 H   0  0  0  0  0  0  0  0  0  0  0  0
   -4.9440    0.7450    2.6430 H   0  0  0  0  0  0  0  0  0  0  0  0
   -6.1460    2.8930    5.1630 H   0  0  0  0  0  0  0  0  0  0  0  0
   -3.1290    0.8460    3.9670 H   0  0  0  0  0  0  0  0  0  0  0  0
  1  4  2  0  0  0  0
  1  3  1  0  0  0  0
  1  2  1  0  0  0  0
  2  5  1  0  0  0  0
  2  6  2  0  0  0  0
  3  7  1  0  0  0  0
  4 41  1  0  0  0  0
  4  8  1  0  0  0  0
  5  9  1  0  0  0  0
  5 10  2  0  0  0  0
  6 11  1  0  0  0  0
  6 12  1  0  0  0  0
  7 13  1  0  0  0  0
  7  9  2  0  0  0  0
  8 14  1  0  0  0  0
  8 11  2  0  0  0  0
  9 42  1  0  0  0  0
 11 43  1  0  0  0  0
 12 44  1  0  0  0  0
 13 15  2  0  0  0  0
 13 16  1  0  0  0  0
 14 17  1  0  0  0  0
 15 18  1  0  0  0  0
 15 45  1  0  0  0  0
 16 19  2  0  0  0  0
 16 46  1  0  0  0  0
 17 47  1  0  0  0  0
 17 20  1  0  0  0  0
 17 21  1  0  0  0  0
 18 48  1  0  0  0  0
 18 22  2  0  0  0  0
 19 22  1  0  0  0  0
 19 49  1  0  0  0  0
 20 24  1  0  0  0  0
 20 23  1  0  0  0  0
 20 50  1  0  0  0  0
 21 25  1  0  0  0  0
 22 26  1  0  0  0  0
 23 27  1  0  0  0  0
 24 28  1  0  0  0  0
 24 29  1  0  0  0  0
 24 51  1  0  0  0  0
 25 52  1  0  0  0  0
 25 28  1  0  0  0  0
 25 30  1  0  0  0  0
 26 53  1  0  0  0  0
 27 31  1  0  0  0  0
 27 32  1  0  0  0  0
 27 54  1  0  0  0  0
 28 55  1  0  0  0  0
 28 33  1  0  0  0  0
 29 56  1  0  0  0  0
 30 34  1  0  0  0  0
 30 57  1  0  0  0  0
 30 58  1  0  0  0  0
 31 36  1  0  0  0  0
 31 35  1  0  0  0  0
 31 59  1  0  0  0  0
 32 37  1  0  0  0  0
 33 60  1  0  0  0  0
 34 61  1  0  0  0  0
 35 38  1  0  0  0  0
 35 39  1  0  0  0  0
 35 37  1  0  0  0  0
 36 62  1  0  0  0  0
 37 64  1  0  0  0  0
 37 63  1  0  0  0  0
 38 40  1  0  0  0  0
 38 65  1  0  0  0  0
 38 66  1  0  0  0  0
 39 67  1  0  0  0  0
 40 68  1  0  0  0  0
M  END
