decoy-438
 OpenBabel06062114513D

 42 42  0  0  0  0  0  0  0  0999 V2000
   -0.2840    1.1310    0.3700 C   0  0  0  0  0  0  0  0  0  0  0  0
    0.0600   -0.4040    0.3110 C   0  0  0  0  0  0  0  0  0  0  0  0
    1.0800    1.8240    0.5870 C   0  0  0  0  0  0  0  0  0  0  0  0
   -0.9080    1.6620   -0.8160 N   0  0  0  0  0  0  0  0  0  0  0  0
    1.5590   -0.4720    0.3140 *   0  0  0  0  0  0  0  0  0  0  0  0
   -0.4160   -1.1200    1.6150 C   0  0  0  0  0  0  0  0  0  0  0  0
   -0.6040   -1.1420   -0.9020 C   0  0  0  0  0  0  0  0  0  0  0  0
    2.1450    0.8600   -0.0020 C   0  0  0  0  0  0  0  0  0  0  0  0
   -2.1020    2.2300   -0.9220 C   0  0  0  0  0  0  0  0  0  0  0  0
    2.1000   -1.5040   -0.3970 O   0  0  0  0  0  0  0  0  0  0  0  0
    2.3730    1.1070   -1.5310 C   0  0  0  0  0  0  0  0  0  0  0  0
    3.5070    1.0200    0.7400 C   0  0  0  0  0  0  0  0  0  0  0  0
   -2.5230    2.6810   -2.2360 C   0  0  0  0  0  0  0  0  0  0  0  0
   -2.8330    2.3630    0.0520 O   0  0  0  0  0  0  0  0  0  0  0  0
   -3.8250    3.2780   -2.2630 N   0  0  0  0  0  0  0  0  0  0  0  0
   -4.4270    3.7640   -3.3400 C   0  0  0  0  0  0  0  0  0  0  0  0
   -5.7480    4.3350   -3.1900 C   0  0  0  0  0  0  0  0  0  0  0  0
   -3.8840    3.7320   -4.4370 O   0  0  0  0  0  0  0  0  0  0  0  0
   -6.5160    5.0070   -4.8330 Br  0  0  0  0  0  0  0  0  0  0  0  0
   -0.9140    1.3530    1.2390 H   0  0  0  0  0  0  0  0  0  0  0  0
    1.1240    2.8200    0.1340 H   0  0  0  0  0  0  0  0  0  0  0  0
    1.2350    1.9480    1.6640 H   0  0  0  0  0  0  0  0  0  0  0  0
   -0.4000    1.5850   -1.6380 H   0  0  0  0  0  0  0  0  0  0  0  0
   -0.1040   -2.1670    1.6180 H   0  0  0  0  0  0  0  0  0  0  0  0
    0.0110   -0.6400    2.4990 H   0  0  0  0  0  0  0  0  0  0  0  0
   -1.5040   -1.0850    1.7010 H   0  0  0  0  0  0  0  0  0  0  0  0
   -0.3890   -2.2130   -0.8760 H   0  0  0  0  0  0  0  0  0  0  0  0
   -1.6890   -1.0150   -0.8810 H   0  0  0  0  0  0  0  0  0  0  0  0
   -0.2310   -0.7510   -1.8490 H   0  0  0  0  0  0  0  0  0  0  0  0
    3.0560   -1.4910   -0.1810 H   0  0  0  0  0  0  0  0  0  0  0  0
    3.1310    0.4260   -1.9220 H   0  0  0  0  0  0  0  0  0  0  0  0
    1.4610    0.9520   -2.1030 H   0  0  0  0  0  0  0  0  0  0  0  0
    2.7140    2.1300   -1.7060 H   0  0  0  0  0  0  0  0  0  0  0  0
    4.2470    0.3230    0.3420 H   0  0  0  0  0  0  0  0  0  0  0  0
    3.8910    2.0360    0.6220 H   0  0  0  0  0  0  0  0  0  0  0  0
    3.3950    0.8180    1.8080 H   0  0  0  0  0  0  0  0  0  0  0  0
   -1.7950    3.4120   -2.5980 H   0  0  0  0  0  0  0  0  0  0  0  0
   -2.5190    1.8210   -2.9120 H   0  0  0  0  0  0  0  0  0  0  0  0
   -4.3100    3.3340   -1.4240 H   0  0  0  0  0  0  0  0  0  0  0  0
   -6.4250    3.5760   -2.7930 H   0  0  0  0  0  0  0  0  0  0  0  0
   -5.7030    5.1640   -2.4810 H   0  0  0  0  0  0  0  0  0  0  0  0
    1.8230   -0.6530    1.2860 H   0  0  0  0  0  0  0  0  0  0  0  0
  1  3  1  0  0  0  0
  1 20  1  0  0  0  0
  1  2  1  0  0  0  0
  1  4  1  0  0  0  0
  2  5  1  0  0  0  0
  2  6  1  0  0  0  0
  2  7  1  0  0  0  0
  3 22  1  0  0  0  0
  3  8  1  0  0  0  0
  3 21  1  0  0  0  0
  4  9  1  0  0  0  0
  4 23  1  0  0  0  0
  5 42  1  0  0  0  0
  5  8  1  0  0  0  0
  5 10  1  0  0  0  0
  6 24  1  0  0  0  0
  6 26  1  0  0  0  0
  6 25  1  0  0  0  0
  7 28  1  0  0  0  0
  7 27  1  0  0  0  0
  7 29  1  0  0  0  0
  8 12  1  0  0  0  0
  8 11  1  0  0  0  0
  9 14  2  0  0  0  0
  9 13  1  0  0  0  0
 10 30  1  0  0  0  0
 11 31  1  0  0  0  0
 11 32  1  0  0  0  0
 11 33  1  0  0  0  0
 12 36  1  0  0  0  0
 12 34  1  0  0  0  0
 12 35  1  0  0  0  0
 13 15  1  0  0  0  0
 13 37  1  0  0  0  0
 13 38  1  0  0  0  0
 15 39  1  0  0  0  0
 15 16  1  0  0  0  0
 16 17  1  0  0  0  0
 16 18  2  0  0  0  0
 17 40  1  0  0  0  0
 17 41  1  0  0  0  0
 17 19  1  0  0  0  0
M  END
