decoy-1026
 OpenBabel06062114513D

 53 52  0  0  0  0  0  0  0  0999 V2000
   -2.0640    1.9520    0.0650 C   0  0  0  0  0  0  0  0  0  0  0  0
   -1.9720    0.6110    0.0050 C   0  0  0  0  0  0  0  0  0  0  0  0
   -1.0860    2.9260   -0.4000 C   0  0  0  0  0  0  0  0  0  0  0  0
   -0.8640   -0.1620   -0.5420 C   0  0  0  0  0  0  0  0  0  0  0  0
   -1.6400    3.7360   -1.4760 C   0  0  0  0  0  0  0  0  0  0  0  0
    0.3590   -0.1080    0.2530 C   0  0  0  0  0  0  0  0  0  0  0  0
   -1.8420    5.0670   -1.4820 C   0  0  0  0  0  0  0  0  0  0  0  0
    1.5150   -0.7140   -0.0700 C   0  0  0  0  0  0  0  0  0  0  0  0
   -1.5120    6.0090   -0.4220 C   0  0  0  0  0  0  0  0  0  0  0  0
    1.7340   -1.5110   -1.2720 C   0  0  0  0  0  0  0  0  0  0  0  0
    0.0050    6.3350   -0.3520 C   0  0  0  0  0  0  0  0  0  0  0  0
    3.0650   -2.0970   -1.3710 C   0  0  0  0  0  0  0  0  0  0  0  0
    0.3460    7.3280    0.7920 C   0  0  0  0  0  0  0  0  0  0  0  0
    3.5600   -3.0980   -0.6200 C   0  0  0  0  0  0  0  0  0  0  0  0
    1.7750    7.6810    0.9000 C   0  0  0  0  0  0  0  0  0  0  0  0
    2.8830   -3.8180    0.4510 C   0  0  0  0  0  0  0  0  0  0  0  0
    2.1730    8.5380    1.8670 O   0  0  0  0  0  0  0  0  0  0  0  0
    2.7170    7.1810    0.0680 O   0  0  0  0  0  0  0  0  0  0  0  0
    2.7100   -5.3230    0.1130 C   0  0  0  0  0  0  0  0  0  0  0  0
    2.0020   -6.1110    1.2470 C   0  0  0  0  0  0  0  0  0  0  0  0
    1.8300   -7.6150    0.9100 C   0  0  0  0  0  0  0  0  0  0  0  0
    1.1230   -8.4010    2.0360 C   0  0  0  0  0  0  0  0  0  0  0  0
   -2.8930    2.3250    0.4740 H   0  0  0  0  0  0  0  0  0  0  0  0
   -2.7490    0.0920    0.3520 H   0  0  0  0  0  0  0  0  0  0  0  0
   -0.7900    3.5220    0.4630 H   0  0  0  0  0  0  0  0  0  0  0  0
   -0.1790    2.4570   -0.7820 H   0  0  0  0  0  0  0  0  0  0  0  0
   -1.1730   -1.2090   -0.6090 H   0  0  0  0  0  0  0  0  0  0  0  0
   -0.6660    0.1850   -1.5600 H   0  0  0  0  0  0  0  0  0  0  0  0
   -1.9050    3.2430   -2.3010 H   0  0  0  0  0  0  0  0  0  0  0  0
    0.3450    0.4110    1.1040 H   0  0  0  0  0  0  0  0  0  0  0  0
   -2.2720    5.4490   -2.2960 H   0  0  0  0  0  0  0  0  0  0  0  0
    2.2740   -0.6000    0.5650 H   0  0  0  0  0  0  0  0  0  0  0  0
   -2.0490    6.9440   -0.6110 H   0  0  0  0  0  0  0  0  0  0  0  0
   -1.8700    5.6280    0.5370 H   0  0  0  0  0  0  0  0  0  0  0  0
    0.9950   -2.3130   -1.3320 H   0  0  0  0  0  0  0  0  0  0  0  0
    1.5790   -0.8590   -2.1370 H   0  0  0  0  0  0  0  0  0  0  0  0
    0.5760    5.4150   -0.1990 H   0  0  0  0  0  0  0  0  0  0  0  0
    0.3170    6.7710   -1.3060 H   0  0  0  0  0  0  0  0  0  0  0  0
    3.6610   -1.7340   -2.0830 H   0  0  0  0  0  0  0  0  0  0  0  0
   -0.2170    8.2520    0.6410 H   0  0  0  0  0  0  0  0  0  0  0  0
    0.0360    6.8920    1.7450 H   0  0  0  0  0  0  0  0  0  0  0  0
    4.4910   -3.3890   -0.8210 H   0  0  0  0  0  0  0  0  0  0  0  0
    3.4880   -3.7190    1.3560 H   0  0  0  0  0  0  0  0  0  0  0  0
    1.9010   -3.3960    0.6700 H   0  0  0  0  0  0  0  0  0  0  0  0
    2.1200   -5.4160   -0.8050 H   0  0  0  0  0  0  0  0  0  0  0  0
    3.6930   -5.7680   -0.0670 H   0  0  0  0  0  0  0  0  0  0  0  0
    2.5890   -6.0170    2.1650 H   0  0  0  0  0  0  0  0  0  0  0  0
    1.0170   -5.6720    1.4260 H   0  0  0  0  0  0  0  0  0  0  0  0
    1.2430   -7.7170   -0.0070 H   0  0  0  0  0  0  0  0  0  0  0  0
    2.8120   -8.0630    0.7370 H   0  0  0  0  0  0  0  0  0  0  0  0
    1.0260   -9.4500    1.7490 H   0  0  0  0  0  0  0  0  0  0  0  0
    1.7000   -8.3450    2.9610 H   0  0  0  0  0  0  0  0  0  0  0  0
    0.1250   -7.9960    2.2150 H   0  0  0  0  0  0  0  0  0  0  0  0
  1 23  1  0  0  0  0
  1  2  2  0  0  0  0
  1  3  1  0  0  0  0
  2 24  1  0  0  0  0
  2  4  1  0  0  0  0
  3 25  1  0  0  0  0
  3  5  1  0  0  0  0
  3 26  1  0  0  0  0
  4  6  1  0  0  0  0
  4 27  1  0  0  0  0
  4 28  1  0  0  0  0
  5  7  2  0  0  0  0
  5 29  1  0  0  0  0
  6 30  1  0  0  0  0
  6  8  2  0  0  0  0
  7  9  1  0  0  0  0
  7 31  1  0  0  0  0
  8 32  1  0  0  0  0
  8 10  1  0  0  0  0
  9 11  1  0  0  0  0
  9 34  1  0  0  0  0
  9 33  1  0  0  0  0
 10 12  1  0  0  0  0
 10 35  1  0  0  0  0
 10 36  1  0  0  0  0
 11 37  1  0  0  0  0
 11 13  1  0  0  0  0
 11 38  1  0  0  0  0
 12 14  2  0  0  0  0
 12 39  1  0  0  0  0
 13 15  1  0  0  0  0
 13 41  1  0  0  0  0
 13 40  1  0  0  0  0
 14 16  1  0  0  0  0
 14 42  1  0  0  0  0
 15 17  1  0  0  0  0
 15 18  2  0  0  0  0
 16 44  1  0  0  0  0
 16 43  1  0  0  0  0
 16 19  1  0  0  0  0
 19 20  1  0  0  0  0
 19 45  1  0  0  0  0
 19 46  1  0  0  0  0
 20 48  1  0  0  0  0
 20 47  1  0  0  0  0
 20 21  1  0  0  0  0
 21 22  1  0  0  0  0
 21 49  1  0  0  0  0
 21 50  1  0  0  0  0
 22 53  1  0  0  0  0
 22 52  1  0  0  0  0
 22 51  1  0  0  0  0
M  END
