decoy-324
 OpenBabel06062114513D

 73 77  0  0  0  0  0  0  0  0999 V2000
   -1.3210    0.2260   -0.5540 C   0  0  0  0  0  0  0  0  0  0  0  0
   -0.5590   -0.3210    0.4240 C   0  0  0  0  0  0  0  0  0  0  0  0
   -0.9660    0.1530   -1.8920 C   0  0  0  0  0  0  0  0  0  0  0  0
   -2.4390    0.9450   -0.2780 O   0  0  0  0  0  0  0  0  0  0  0  0
   -0.9350   -0.1570    1.7300 C   0  0  0  0  0  0  0  0  0  0  0  0
    0.5820   -0.9750    0.1180 O   0  0  0  0  0  0  0  0  0  0  0  0
   -0.5940    1.3260   -2.5870 C   0  0  0  0  0  0  0  0  0  0  0  0
   -0.9430   -1.0840   -2.5750 C   0  0  0  0  0  0  0  0  0  0  0  0
   -2.6250    1.3760    1.0210 C   0  0  0  0  0  0  0  0  0  0  0  0
   -1.8610    0.8290    2.0860 C   0  0  0  0  0  0  0  0  0  0  0  0
   -0.5420   -0.9720    2.5540 O   0  0  0  0  0  0  0  0  0  0  0  0
    1.7980   -0.2020    0.2580 C   0  0  0  0  0  0  0  0  0  0  0  0
   -0.1790    1.2650   -3.9330 C   0  0  0  0  0  0  0  0  0  0  0  0
   -0.5340   -1.1470   -3.9190 C   0  0  0  0  0  0  0  0  0  0  0  0
   -3.5900    2.3690    1.2720 C   0  0  0  0  0  0  0  0  0  0  0  0
   -2.0610    1.3210    3.4020 C   0  0  0  0  0  0  0  0  0  0  0  0
    1.6410    1.1080   -0.3300 O   0  0  0  0  0  0  0  0  0  0  0  0
    2.9820   -0.9720   -0.4140 C   0  0  0  0  0  0  0  0  0  0  0  0
   -0.1480    0.0230   -4.6010 C   0  0  0  0  0  0  0  0  0  0  0  0
    0.1950    2.3970   -4.5830 O   0  0  0  0  0  0  0  0  0  0  0  0
   -3.7980    2.8370    2.5830 C   0  0  0  0  0  0  0  0  0  0  0  0
   -3.0320    2.3140    3.6400 C   0  0  0  0  0  0  0  0  0  0  0  0
   -1.3370    0.8890    4.4660 O   0  0  0  0  0  0  0  0  0  0  0  0
    2.7760    1.9870   -0.2030 C   0  0  0  0  0  0  0  0  0  0  0  0
    3.8110   -0.0720   -1.3790 C   0  0  0  0  0  0  0  0  0  0  0  0
    3.8440   -1.5150    0.5860 O   0  0  0  0  0  0  0  0  0  0  0  0
    0.2480   -0.0770   -5.8950 O   0  0  0  0  0  0  0  0  0  0  0  0
   -4.7210    3.7970    2.8400 O   0  0  0  0  0  0  0  0  0  0  0  0
    2.3840    3.3130   -0.8980 C   0  0  0  0  0  0  0  0  0  0  0  0
    4.0830    1.3350   -0.7750 C   0  0  0  0  0  0  0  0  0  0  0  0
    3.1040    0.0850   -2.6110 O   0  0  0  0  0  0  0  0  0  0  0  0
    1.1250    3.7570   -0.3580 O   0  0  0  0  0  0  0  0  0  0  0  0
    5.0660    1.2160    0.2540 O   0  0  0  0  0  0  0  0  0  0  0  0
    0.6250    5.0150   -0.8530 C   0  0  0  0  0  0  0  0  0  0  0  0
   -0.8460    5.2000   -0.3910 C   0  0  0  0  0  0  0  0  0  0  0  0
    1.4340    6.1290   -0.4140 O   0  0  0  0  0  0  0  0  0  0  0  0
   -0.9140    5.4330    1.1420 C   0  0  0  0  0  0  0  0  0  0  0  0
   -1.4300    6.3050   -1.0810 O   0  0  0  0  0  0  0  0  0  0  0  0
    1.4750    6.3430    1.0160 C   0  0  0  0  0  0  0  0  0  0  0  0
    0.0420    6.5750    1.5840 C   0  0  0  0  0  0  0  0  0  0  0  0
   -2.2510    5.7420    1.5350 O   0  0  0  0  0  0  0  0  0  0  0  0
    2.4150    7.5420    1.2840 C   0  0  0  0  0  0  0  0  0  0  0  0
    0.0800    6.6480    3.0090 O   0  0  0  0  0  0  0  0  0  0  0  0
   -0.6060    2.2320   -2.1110 H   0  0  0  0  0  0  0  0  0  0  0  0
   -1.2130   -1.9470   -2.0960 H   0  0  0  0  0  0  0  0  0  0  0  0
    1.9960   -0.0800    1.3290 H   0  0  0  0  0  0  0  0  0  0  0  0
   -0.5150   -2.0490   -4.4000 H   0  0  0  0  0  0  0  0  0  0  0  0
   -4.1370    2.7540    0.4990 H   0  0  0  0  0  0  0  0  0  0  0  0
    2.5990   -1.8210   -0.9880 H   0  0  0  0  0  0  0  0  0  0  0  0
    0.0900    3.1260   -3.9360 H   0  0  0  0  0  0  0  0  0  0  0  0
   -3.1760    2.6660    4.5900 H   0  0  0  0  0  0  0  0  0  0  0  0
   -0.4650    0.6270    4.1060 H   0  0  0  0  0  0  0  0  0  0  0  0
    2.9120    2.2130    0.8610 H   0  0  0  0  0  0  0  0  0  0  0  0
    4.7610   -0.5600   -1.6160 H   0  0  0  0  0  0  0  0  0  0  0  0
    3.2750   -2.1160    1.1130 H   0  0  0  0  0  0  0  0  0  0  0  0
    0.4710    0.8320   -6.1830 H   0  0  0  0  0  0  0  0  0  0  0  0
   -5.1300    4.0130    1.9750 H   0  0  0  0  0  0  0  0  0  0  0  0
    3.1640    4.0580   -0.7220 H   0  0  0  0  0  0  0  0  0  0  0  0
    2.2870    3.1450   -1.9750 H   0  0  0  0  0  0  0  0  0  0  0  0
    4.5250    1.9650   -1.5530 H   0  0  0  0  0  0  0  0  0  0  0  0
    3.0100   -0.8220   -2.9700 H   0  0  0  0  0  0  0  0  0  0  0  0
    5.2350    2.1340    0.5510 H   0  0  0  0  0  0  0  0  0  0  0  0
    0.6330    5.0000   -1.9470 H   0  0  0  0  0  0  0  0  0  0  0  0
   -1.4240    4.3070   -0.6460 H   0  0  0  0  0  0  0  0  0  0  0  0
   -0.6270    4.5100    1.6540 H   0  0  0  0  0  0  0  0  0  0  0  0
   -1.3900    6.0640   -2.0310 H   0  0  0  0  0  0  0  0  0  0  0  0
    1.9150    5.4660    1.5020 H   0  0  0  0  0  0  0  0  0  0  0  0
   -0.3440    7.5270    1.2060 H   0  0  0  0  0  0  0  0  0  0  0  0
   -2.7850    4.9760    1.2400 H   0  0  0  0  0  0  0  0  0  0  0  0
    2.5120    7.7220    2.3560 H   0  0  0  0  0  0  0  0  0  0  0  0
    3.4070    7.3330    0.8790 H   0  0  0  0  0  0  0  0  0  0  0  0
    2.0280    8.4450    0.8070 H   0  0  0  0  0  0  0  0  0  0  0  0
   -0.8420    6.8390    3.2800 H   0  0  0  0  0  0  0  0  0  0  0  0
  1  4  1  0  0  0  0
  1  2  2  0  0  0  0
  1  3  1  0  0  0  0
  2  5  1  0  0  0  0
  2  6  1  0  0  0  0
  3  7  2  0  0  0  0
  3  8  1  0  0  0  0
  4  9  1  0  0  0  0
  5 10  1  0  0  0  0
  5 11  2  0  0  0  0
  6 12  1  0  0  0  0
  7 44  1  0  0  0  0
  7 13  1  0  0  0  0
  8 45  1  0  0  0  0
  8 14  2  0  0  0  0
  9 15  2  0  0  0  0
  9 10  1  0  0  0  0
 10 16  2  0  0  0  0
 12 18  1  0  0  0  0
 12 46  1  0  0  0  0
 12 17  1  0  0  0  0
 13 19  2  0  0  0  0
 13 20  1  0  0  0  0
 14 19  1  0  0  0  0
 14 47  1  0  0  0  0
 15 21  1  0  0  0  0
 15 48  1  0  0  0  0
 16 22  1  0  0  0  0
 16 23  1  0  0  0  0
 17 24  1  0  0  0  0
 18 25  1  0  0  0  0
 18 26  1  0  0  0  0
 18 49  1  0  0  0  0
 19 27  1  0  0  0  0
 20 50  1  0  0  0  0
 21 28  1  0  0  0  0
 21 22  2  0  0  0  0
 22 51  1  0  0  0  0
 23 52  1  0  0  0  0
 24 30  1  0  0  0  0
 24 53  1  0  0  0  0
 24 29  1  0  0  0  0
 25 30  1  0  0  0  0
 25 31  1  0  0  0  0
 25 54  1  0  0  0  0
 26 55  1  0  0  0  0
 27 56  1  0  0  0  0
 28 57  1  0  0  0  0
 29 58  1  0  0  0  0
 29 32  1  0  0  0  0
 29 59  1  0  0  0  0
 30 60  1  0  0  0  0
 30 33  1  0  0  0  0
 31 61  1  0  0  0  0
 32 34  1  0  0  0  0
 33 62  1  0  0  0  0
 34 36  1  0  0  0  0
 34 35  1  0  0  0  0
 34 63  1  0  0  0  0
 35 37  1  0  0  0  0
 35 38  1  0  0  0  0
 35 64  1  0  0  0  0
 36 39  1  0  0  0  0
 37 41  1  0  0  0  0
 37 40  1  0  0  0  0
 37 65  1  0  0  0  0
 38 66  1  0  0  0  0
 39 42  1  0  0  0  0
 39 67  1  0  0  0  0
 39 40  1  0  0  0  0
 40 68  1  0  0  0  0
 40 43  1  0  0  0  0
 41 69  1  0  0  0  0
 42 70  1  0  0  0  0
 42 71  1  0  0  0  0
 42 72  1  0  0  0  0
 43 73  1  0  0  0  0
M  END
