decoy-151
 OpenBabel06062114503D

 41 40  0  0  0  0  0  0  0  0999 V2000
   -0.0190    1.4640    0.0090 C   0  0  0  0  0  0  0  0  0  0  0  0
   -0.0140   -0.0680    0.0300 C   0  0  0  0  0  0  0  0  0  0  0  0
    1.4120    2.0090   -0.0310 C   0  0  0  0  0  0  0  0  0  0  0  0
   -0.7320    1.9860   -1.2410 C   0  0  0  0  0  0  0  0  0  0  0  0
   -0.7400    1.9270    1.2780 C   0  0  0  0  0  0  0  0  0  0  0  0
    0.6540   -0.8570   -1.1380 C   0  0  0  0  0  0  0  0  0  0  0  0
    2.4090    1.6550    1.1160 C   0  0  0  0  0  0  0  0  0  0  0  0
   -2.2230    1.6050   -1.5000 C   0  0  0  0  0  0  0  0  0  0  0  0
   -0.9150    3.4520    1.5580 C   0  0  0  0  0  0  0  0  0  0  0  0
    0.5660   -2.3900   -0.9520 C   0  0  0  0  0  0  0  0  0  0  0  0
    3.8040    2.2900    0.9130 C   0  0  0  0  0  0  0  0  0  0  0  0
   -2.7800    2.2190   -2.8050 C   0  0  0  0  0  0  0  0  0  0  0  0
   -1.6650    3.7360    2.8800 C   0  0  0  0  0  0  0  0  0  0  0  0
    0.4650   -0.4150    0.9500 H   0  0  0  0  0  0  0  0  0  0  0  0
   -1.0430   -0.4320    0.0980 H   0  0  0  0  0  0  0  0  0  0  0  0
    1.8920    1.6980   -0.9630 H   0  0  0  0  0  0  0  0  0  0  0  0
    1.3810    3.1010   -0.0850 H   0  0  0  0  0  0  0  0  0  0  0  0
   -0.6880    3.0790   -1.2530 H   0  0  0  0  0  0  0  0  0  0  0  0
   -0.1770    1.6760   -2.1310 H   0  0  0  0  0  0  0  0  0  0  0  0
   -1.7440    1.4930    1.3020 H   0  0  0  0  0  0  0  0  0  0  0  0
   -0.2360    1.5100    2.1540 H   0  0  0  0  0  0  0  0  0  0  0  0
    0.1700   -0.6100   -2.0840 H   0  0  0  0  0  0  0  0  0  0  0  0
    1.7100   -0.5930   -1.2140 H   0  0  0  0  0  0  0  0  0  0  0  0
    2.0210    2.0070    2.0730 H   0  0  0  0  0  0  0  0  0  0  0  0
    2.5430    0.5740    1.1760 H   0  0  0  0  0  0  0  0  0  0  0  0
   -2.3270    0.5210   -1.5730 H   0  0  0  0  0  0  0  0  0  0  0  0
   -2.8480    1.9540   -0.6760 H   0  0  0  0  0  0  0  0  0  0  0  0
    0.0610    3.9370    1.6200 H   0  0  0  0  0  0  0  0  0  0  0  0
   -1.4800    3.9200    0.7500 H   0  0  0  0  0  0  0  0  0  0  0  0
    1.0460   -2.8930   -1.7940 H   0  0  0  0  0  0  0  0  0  0  0  0
    1.0700   -2.6920   -0.0330 H   0  0  0  0  0  0  0  0  0  0  0  0
   -0.4780   -2.7090   -0.9070 H   0  0  0  0  0  0  0  0  0  0  0  0
    4.4610    2.0120    1.7390 H   0  0  0  0  0  0  0  0  0  0  0  0
    4.2510    1.9390   -0.0190 H   0  0  0  0  0  0  0  0  0  0  0  0
    3.7270    3.3790    0.8820 H   0  0  0  0  0  0  0  0  0  0  0  0
   -3.8230    1.9220   -2.9370 H   0  0  0  0  0  0  0  0  0  0  0  0
   -2.7320    3.3090   -2.7650 H   0  0  0  0  0  0  0  0  0  0  0  0
   -2.2080    1.8690   -3.6660 H   0  0  0  0  0  0  0  0  0  0  0  0
   -1.7600    4.8130    3.0280 H   0  0  0  0  0  0  0  0  0  0  0  0
   -2.6650    3.2990    2.8530 H   0  0  0  0  0  0  0  0  0  0  0  0
   -1.1170    3.3160    3.7270 H   0  0  0  0  0  0  0  0  0  0  0  0
  1  2  1  0  0  0  0
  1  5  1  0  0  0  0
  1  3  1  0  0  0  0
  1  4  1  0  0  0  0
  2 15  1  0  0  0  0
  2 14  1  0  0  0  0
  2  6  1  0  0  0  0
  3  7  1  0  0  0  0
  3 16  1  0  0  0  0
  3 17  1  0  0  0  0
  4  8  1  0  0  0  0
  4 18  1  0  0  0  0
  4 19  1  0  0  0  0
  5 20  1  0  0  0  0
  5  9  1  0  0  0  0
  5 21  1  0  0  0  0
  6 10  1  0  0  0  0
  6 22  1  0  0  0  0
  6 23  1  0  0  0  0
  7 25  1  0  0  0  0
  7 24  1  0  0  0  0
  7 11  1  0  0  0  0
  8 27  1  0  0  0  0
  8 12  1  0  0  0  0
  8 26  1  0  0  0  0
  9 28  1  0  0  0  0
  9 13  1  0  0  0  0
  9 29  1  0  0  0  0
 10 32  1  0  0  0  0
 10 31  1  0  0  0  0
 10 30  1  0  0  0  0
 11 33  1  0  0  0  0
 11 34  1  0  0  0  0
 11 35  1  0  0  0  0
 12 37  1  0  0  0  0
 12 36  1  0  0  0  0
 12 38  1  0  0  0  0
 13 39  1  0  0  0  0
 13 41  1  0  0  0  0
 13 40  1  0  0  0  0
M  END
