decoy-359
 OpenBabel06062114513D

 51 55  0  0  0  0  0  0  0  0999 V2000
   -0.1590    1.1420   -0.0550 C   0  0  0  0  0  0  0  0  0  0  0  0
    0.1620   -0.1030    0.3460 C   0  0  0  0  0  0  0  0  0  0  0  0
    0.9650    1.8070   -0.3540 C   0  0  0  0  0  0  0  0  0  0  0  0
   -1.4460    1.6570   -0.1390 C   0  0  0  0  0  0  0  0  0  0  0  0
    1.4940   -0.2430    0.3070 C   0  0  0  0  0  0  0  0  0  0  0  0
   -0.7390   -1.0830    0.7420 C   0  0  0  0  0  0  0  0  0  0  0  0
    1.0530    3.1120   -0.8120 C   0  0  0  0  0  0  0  0  0  0  0  0
    2.1200    0.9710   -0.1480 C   0  0  0  0  0  0  0  0  0  0  0  0
   -1.9550    2.4780    0.8920 C   0  0  0  0  0  0  0  0  0  0  0  0
   -2.2610    1.3630   -1.2570 C   0  0  0  0  0  0  0  0  0  0  0  0
    2.2130   -1.3730    0.6590 C   0  0  0  0  0  0  0  0  0  0  0  0
   -1.2590   -1.0850    2.0560 C   0  0  0  0  0  0  0  0  0  0  0  0
   -1.1470   -2.0860   -0.1660 C   0  0  0  0  0  0  0  0  0  0  0  0
    1.4140    4.1560    0.0700 C   0  0  0  0  0  0  0  0  0  0  0  0
    0.7660    3.4150   -2.1620 C   0  0  0  0  0  0  0  0  0  0  0  0
   -3.2600    2.9970    0.8060 C   0  0  0  0  0  0  0  0  0  0  0  0
   -3.5650    1.8840   -1.3400 C   0  0  0  0  0  0  0  0  0  0  0  0
    2.6400   -2.2840   -0.3340 C   0  0  0  0  0  0  0  0  0  0  0  0
    2.5090   -1.6370    2.0150 C   0  0  0  0  0  0  0  0  0  0  0  0
   -2.1740   -2.0770    2.4550 C   0  0  0  0  0  0  0  0  0  0  0  0
   -2.0620   -3.0770    0.2360 C   0  0  0  0  0  0  0  0  0  0  0  0
    1.4850    5.4830   -0.3930 C   0  0  0  0  0  0  0  0  0  0  0  0
    0.8380    4.7430   -2.6220 C   0  0  0  0  0  0  0  0  0  0  0  0
   -4.0650    2.7010   -0.3090 C   0  0  0  0  0  0  0  0  0  0  0  0
    3.3530   -3.4420    0.0260 C   0  0  0  0  0  0  0  0  0  0  0  0
    3.2230   -2.7970    2.3720 C   0  0  0  0  0  0  0  0  0  0  0  0
   -2.5750   -3.0730    1.5460 C   0  0  0  0  0  0  0  0  0  0  0  0
    1.1970    5.7770   -1.7380 C   0  0  0  0  0  0  0  0  0  0  0  0
    3.6450   -3.6990    1.3780 C   0  0  0  0  0  0  0  0  0  0  0  0
    2.6660    0.8120   -1.0820 H   0  0  0  0  0  0  0  0  0  0  0  0
    2.7820    1.3870    0.6170 H   0  0  0  0  0  0  0  0  0  0  0  0
   -1.3820    2.7010    1.7110 H   0  0  0  0  0  0  0  0  0  0  0  0
   -1.9110    0.7700   -2.0150 H   0  0  0  0  0  0  0  0  0  0  0  0
   -0.9760   -0.3670    2.7290 H   0  0  0  0  0  0  0  0  0  0  0  0
   -0.7830   -2.1020   -1.1230 H   0  0  0  0  0  0  0  0  0  0  0  0
    1.6200    3.9590    1.0540 H   0  0  0  0  0  0  0  0  0  0  0  0
    0.5000    2.6750   -2.8170 H   0  0  0  0  0  0  0  0  0  0  0  0
   -3.6250    3.5910    1.5550 H   0  0  0  0  0  0  0  0  0  0  0  0
   -4.1500    1.6690   -2.1500 H   0  0  0  0  0  0  0  0  0  0  0  0
    2.4300   -2.1140   -1.3220 H   0  0  0  0  0  0  0  0  0  0  0  0
    2.2060   -0.9920    2.7500 H   0  0  0  0  0  0  0  0  0  0  0  0
   -2.5470   -2.0750    3.4070 H   0  0  0  0  0  0  0  0  0  0  0  0
   -2.3540   -3.8010   -0.4240 H   0  0  0  0  0  0  0  0  0  0  0  0
    1.7450    6.2350    0.2490 H   0  0  0  0  0  0  0  0  0  0  0  0
    0.6280    4.9580   -3.5990 H   0  0  0  0  0  0  0  0  0  0  0  0
   -5.0130    3.0790   -0.3710 H   0  0  0  0  0  0  0  0  0  0  0  0
    3.6580   -4.0990   -0.6950 H   0  0  0  0  0  0  0  0  0  0  0  0
    3.4340   -2.9850    3.3550 H   0  0  0  0  0  0  0  0  0  0  0  0
   -3.2400   -3.7930    1.8370 H   0  0  0  0  0  0  0  0  0  0  0  0
    1.2480    6.7420   -2.0730 H   0  0  0  0  0  0  0  0  0  0  0  0
    4.1620   -4.5410    1.6390 H   0  0  0  0  0  0  0  0  0  0  0  0
  1  2  2  0  0  0  0
  1  3  1  0  0  0  0
  1  4  1  0  0  0  0
  2  6  1  0  0  0  0
  2  5  1  0  0  0  0
  3  7  1  0  0  0  0
  3  8  1  0  0  0  0
  4  9  2  0  0  0  0
  4 10  1  0  0  0  0
  5 11  1  0  0  0  0
  5  8  1  0  0  0  0
  6 12  2  0  0  0  0
  6 13  1  0  0  0  0
  7 14  2  0  0  0  0
  7 15  1  0  0  0  0
  8 31  1  0  0  0  0
  8 30  1  0  0  0  0
  9 32  1  0  0  0  0
  9 16  1  0  0  0  0
 10 17  2  0  0  0  0
 10 33  1  0  0  0  0
 11 19  2  0  0  0  0
 11 18  1  0  0  0  0
 12 20  1  0  0  0  0
 12 34  1  0  0  0  0
 13 21  2  0  0  0  0
 13 35  1  0  0  0  0
 14 36  1  0  0  0  0
 14 22  1  0  0  0  0
 15 23  2  0  0  0  0
 15 37  1  0  0  0  0
 16 38  1  0  0  0  0
 16 24  2  0  0  0  0
 17 24  1  0  0  0  0
 17 39  1  0  0  0  0
 18 25  2  0  0  0  0
 18 40  1  0  0  0  0
 19 26  1  0  0  0  0
 19 41  1  0  0  0  0
 20 42  1  0  0  0  0
 20 27  2  0  0  0  0
 21 27  1  0  0  0  0
 21 43  1  0  0  0  0
 22 44  1  0  0  0  0
 22 28  2  0  0  0  0
 23 28  1  0  0  0  0
 23 45  1  0  0  0  0
 24 46  1  0  0  0  0
 25 29  1  0  0  0  0
 25 47  1  0  0  0  0
 26 48  1  0  0  0  0
 26 29  2  0  0  0  0
 27 49  1  0  0  0  0
 28 50  1  0  0  0  0
 29 51  1  0  0  0  0
M  END
