decoy-212
 OpenBabel06062114503D

 81 85  0  0  0  0  0  0  0  0999 V2000
   -0.1970    3.1160   -1.5810 C   0  0  0  0  0  0  0  0  0  0  0  0
   -0.5900    1.5380   -1.7590 C   0  0  0  0  0  0  0  0  0  0  0  0
    1.2710    3.2080   -0.9690 C   0  0  0  0  0  0  0  0  0  0  0  0
   -0.1980    3.9430   -2.9310 C   0  0  0  0  0  0  0  0  0  0  0  0
   -1.2240    3.8370   -0.6320 C   0  0  0  0  0  0  0  0  0  0  0  0
   -0.4680    0.8070   -0.4560 C   0  0  0  0  0  0  0  0  0  0  0  0
   -2.0480    1.3120   -2.3630 C   0  0  0  0  0  0  0  0  0  0  0  0
    0.4110    0.7930   -2.7480 C   0  0  0  0  0  0  0  0  0  0  0  0
    1.9820    4.6470   -0.8820 C   0  0  0  0  0  0  0  0  0  0  0  0
    1.4150    2.2890    0.2970 C   0  0  0  0  0  0  0  0  0  0  0  0
    0.4970    5.3360   -2.9060 C   0  0  0  0  0  0  0  0  0  0  0  0
   -1.4070   -0.3010   -0.0660 C   0  0  0  0  0  0  0  0  0  0  0  0
    0.5170    1.1490    0.4090 C   0  0  0  0  0  0  0  0  0  0  0  0
   -3.2360    1.0150   -1.3910 C   0  0  0  0  0  0  0  0  0  0  0  0
    1.9610    5.2750   -2.3490 C   0  0  0  0  0  0  0  0  0  0  0  0
    3.5000    4.4350   -0.4940 C   0  0  0  0  0  0  0  0  0  0  0  0
    1.3270    5.5780    0.2160 C   0  0  0  0  0  0  0  0  0  0  0  0
   -2.9000    0.2270   -0.0610 C   0  0  0  0  0  0  0  0  0  0  0  0
   -1.1800   -1.6550   -0.8570 C   0  0  0  0  0  0  0  0  0  0  0  0
    2.8650    6.5660   -2.6080 C   0  0  0  0  0  0  0  0  0  0  0  0
    4.4190    5.6710   -0.6850 C   0  0  0  0  0  0  0  0  0  0  0  0
   -3.9150   -0.9550    0.1700 C   0  0  0  0  0  0  0  0  0  0  0  0
   -3.1270    1.1710    1.1790 C   0  0  0  0  0  0  0  0  0  0  0  0
   -2.2420   -2.7570   -0.5000 C   0  0  0  0  0  0  0  0  0  0  0  0
    0.2740   -2.1910   -0.6520 C   0  0  0  0  0  0  0  0  0  0  0  0
    4.3320    6.2480   -2.1190 C   0  0  0  0  0  0  0  0  0  0  0  0
    2.9540    6.8760   -4.1490 C   0  0  0  0  0  0  0  0  0  0  0  0
    2.3240    7.8730   -1.9320 C   0  0  0  0  0  0  0  0  0  0  0  0
   -3.6740   -2.1930   -0.7180 C   0  0  0  0  0  0  0  0  0  0  0  0
   -2.0920   -4.0830   -1.3060 C   0  0  0  0  0  0  0  0  0  0  0  0
    5.1970    7.3870   -2.1650 O   0  0  0  0  0  0  0  0  0  0  0  0
    1.8940    2.7040   -1.7060 H   0  0  0  0  0  0  0  0  0  0  0  0
   -1.2150   -0.5980    0.9730 H   0  0  0  0  0  0  0  0  0  0  0  0
    2.4380    4.5210   -2.9870 H   0  0  0  0  0  0  0  0  0  0  0  0
    0.3070    3.3900   -3.7170 H   0  0  0  0  0  0  0  0  0  0  0  0
   -1.2220    4.1020   -3.2790 H   0  0  0  0  0  0  0  0  0  0  0  0
   -1.0740    3.5500    0.4050 H   0  0  0  0  0  0  0  0  0  0  0  0
   -1.1530    4.9180   -0.6660 H   0  0  0  0  0  0  0  0  0  0  0  0
   -2.2480    3.6180   -0.9100 H   0  0  0  0  0  0  0  0  0  0  0  0
   -2.3340    2.1580   -2.9860 H   0  0  0  0  0  0  0  0  0  0  0  0
   -2.0420    0.4680   -3.0580 H   0  0  0  0  0  0  0  0  0  0  0  0
    1.4260    0.7200   -2.3620 H   0  0  0  0  0  0  0  0  0  0  0  0
    0.1230   -0.2320   -2.9510 H   0  0  0  0  0  0  0  0  0  0  0  0
    0.4510    1.2610   -3.7270 H   0  0  0  0  0  0  0  0  0  0  0  0
    2.4340    1.8940    0.3360 H   0  0  0  0  0  0  0  0  0  0  0  0
    1.2740    2.8740    1.2040 H   0  0  0  0  0  0  0  0  0  0  0  0
    0.5030    5.6880   -3.9380 H   0  0  0  0  0  0  0  0  0  0  0  0
   -0.1060    6.0510   -2.3510 H   0  0  0  0  0  0  0  0  0  0  0  0
    0.6290    0.6140    1.2410 H   0  0  0  0  0  0  0  0  0  0  0  0
   -3.7350    1.9570   -1.1550 H   0  0  0  0  0  0  0  0  0  0  0  0
   -3.9840    0.4670   -1.9710 H   0  0  0  0  0  0  0  0  0  0  0  0
    3.5780    4.1210    0.5510 H   0  0  0  0  0  0  0  0  0  0  0  0
    3.9290    3.6290   -1.0970 H   0  0  0  0  0  0  0  0  0  0  0  0
    0.6110    6.2750   -0.2090 H   0  0  0  0  0  0  0  0  0  0  0  0
    0.8060    5.0160    0.9840 H   0  0  0  0  0  0  0  0  0  0  0  0
    2.0560    6.1820    0.7520 H   0  0  0  0  0  0  0  0  0  0  0  0
   -1.3180   -1.4700   -1.9180 H   0  0  0  0  0  0  0  0  0  0  0  0
    4.1820    6.4470    0.0440 H   0  0  0  0  0  0  0  0  0  0  0  0
    5.4510    5.3650   -0.4900 H   0  0  0  0  0  0  0  0  0  0  0  0
   -3.8670   -1.3030    1.2070 H   0  0  0  0  0  0  0  0  0  0  0  0
   -4.9390   -0.6050    0.0050 H   0  0  0  0  0  0  0  0  0  0  0  0
   -2.4820    2.0370    1.1450 H   0  0  0  0  0  0  0  0  0  0  0  0
   -4.1600    1.5280    1.2160 H   0  0  0  0  0  0  0  0  0  0  0  0
   -2.9180    0.6560    2.1200 H   0  0  0  0  0  0  0  0  0  0  0  0
   -2.1350   -3.0150    0.5590 H   0  0  0  0  0  0  0  0  0  0  0  0
    1.0190   -1.4180   -0.8350 H   0  0  0  0  0  0  0  0  0  0  0  0
    0.4070   -2.5550    0.3690 H   0  0  0  0  0  0  0  0  0  0  0  0
    0.4920   -3.0030   -1.3450 H   0  0  0  0  0  0  0  0  0  0  0  0
    4.7730    5.4990   -2.7850 H   0  0  0  0  0  0  0  0  0  0  0  0
    2.0070    7.2500   -4.5410 H   0  0  0  0  0  0  0  0  0  0  0  0
    3.7000    7.6440   -4.3620 H   0  0  0  0  0  0  0  0  0  0  0  0
    3.2280    5.9840   -4.7160 H   0  0  0  0  0  0  0  0  0  0  0  0
    2.4140    7.8440   -0.8510 H   0  0  0  0  0  0  0  0  0  0  0  0
    2.8850    8.7480   -2.2680 H   0  0  0  0  0  0  0  0  0  0  0  0
    1.2760    8.0390   -2.1850 H   0  0  0  0  0  0  0  0  0  0  0  0
   -4.4170   -2.9510   -0.4520 H   0  0  0  0  0  0  0  0  0  0  0  0
   -3.8240   -1.9380   -1.7700 H   0  0  0  0  0  0  0  0  0  0  0  0
   -1.1760   -4.6040   -1.0290 H   0  0  0  0  0  0  0  0  0  0  0  0
   -2.9220   -4.7600   -1.0950 H   0  0  0  0  0  0  0  0  0  0  0  0
   -2.0730   -3.8820   -2.3800 H   0  0  0  0  0  0  0  0  0  0  0  0
    5.2770    7.6200   -3.1130 H   0  0  0  0  0  0  0  0  0  0  0  0
  1  2  1  0  0  0  0
  1  5  1  0  0  0  0
  1  3  1  0  0  0  0
  1  4  1  0  0  0  0
  2  8  1  0  0  0  0
  2  6  1  0  0  0  0
  2  7  1  0  0  0  0
  3  9  1  0  0  0  0
  3 10  1  0  0  0  0
  3 32  1  0  0  0  0
  4 11  1  0  0  0  0
  4 35  1  0  0  0  0
  4 36  1  0  0  0  0
  5 37  1  0  0  0  0
  5 38  1  0  0  0  0
  5 39  1  0  0  0  0
  6 12  1  0  0  0  0
  6 13  2  0  0  0  0
  7 14  1  0  0  0  0
  7 40  1  0  0  0  0
  7 41  1  0  0  0  0
  8 42  1  0  0  0  0
  8 43  1  0  0  0  0
  8 44  1  0  0  0  0
  9 15  1  0  0  0  0
  9 16  1  0  0  0  0
  9 17  1  0  0  0  0
 10 45  1  0  0  0  0
 10 13  1  0  0  0  0
 10 46  1  0  0  0  0
 11 48  1  0  0  0  0
 11 15  1  0  0  0  0
 11 47  1  0  0  0  0
 12 19  1  0  0  0  0
 12 33  1  0  0  0  0
 12 18  1  0  0  0  0
 13 49  1  0  0  0  0
 14 50  1  0  0  0  0
 14 18  1  0  0  0  0
 14 51  1  0  0  0  0
 15 34  1  0  0  0  0
 15 20  1  0  0  0  0
 16 52  1  0  0  0  0
 16 21  1  0  0  0  0
 16 53  1  0  0  0  0
 17 56  1  0  0  0  0
 17 55  1  0  0  0  0
 17 54  1  0  0  0  0
 18 22  1  0  0  0  0
 18 23  1  0  0  0  0
 19 25  1  0  0  0  0
 19 24  1  0  0  0  0
 19 57  1  0  0  0  0
 20 26  1  0  0  0  0
 20 28  1  0  0  0  0
 20 27  1  0  0  0  0
 21 59  1  0  0  0  0
 21 58  1  0  0  0  0
 21 26  1  0  0  0  0
 22 60  1  0  0  0  0
 22 29  1  0  0  0  0
 22 61  1  0  0  0  0
 23 63  1  0  0  0  0
 23 64  1  0  0  0  0
 23 62  1  0  0  0  0
 24 65  1  0  0  0  0
 24 29  1  0  0  0  0
 24 30  1  0  0  0  0
 25 67  1  0  0  0  0
 25 66  1  0  0  0  0
 25 68  1  0  0  0  0
 26 69  1  0  0  0  0
 26 31  1  0  0  0  0
 27 70  1  0  0  0  0
 27 71  1  0  0  0  0
 27 72  1  0  0  0  0
 28 73  1  0  0  0  0
 28 74  1  0  0  0  0
 28 75  1  0  0  0  0
 29 76  1  0  0  0  0
 29 77  1  0  0  0  0
 30 79  1  0  0  0  0
 30 78  1  0  0  0  0
 30 80  1  0  0  0  0
 31 81  1  0  0  0  0
M  END
