decoy-471
 OpenBabel06062114513D

 84 90  0  0  0  0  0  0  0  0999 V2000
   -0.3140    1.3660   -0.1990 C   0  0  0  0  0  0  0  0  0  0  0  0
   -0.1460   -0.1220    0.0610 C   0  0  0  0  0  0  0  0  0  0  0  0
    0.9820    2.1390   -0.0430 C   0  0  0  0  0  0  0  0  0  0  0  0
   -0.7970    1.7780   -1.5780 C   0  0  0  0  0  0  0  0  0  0  0  0
   -1.2140    1.8240    0.8570 O   0  0  0  0  0  0  0  0  0  0  0  0
   -0.7800   -1.1210   -0.7240 C   0  0  0  0  0  0  0  0  0  0  0  0
    0.5510   -0.5590    1.2190 C   0  0  0  0  0  0  0  0  0  0  0  0
    0.9910    3.4620    0.4770 C   0  0  0  0  0  0  0  0  0  0  0  0
    2.2270    1.6110   -0.4820 C   0  0  0  0  0  0  0  0  0  0  0  0
   -1.7750    2.7930   -1.7570 C   0  0  0  0  0  0  0  0  0  0  0  0
   -0.1960    1.2520   -2.7540 C   0  0  0  0  0  0  0  0  0  0  0  0
   -2.5190    1.2370    1.0710 C   0  0  0  0  0  0  0  0  0  0  0  0
   -0.6500   -2.4890   -0.4190 C   0  0  0  0  0  0  0  0  0  0  0  0
    0.6840   -1.9250    1.5290 C   0  0  0  0  0  0  0  0  0  0  0  0
    2.1820    4.2020    0.5870 C   0  0  0  0  0  0  0  0  0  0  0  0
    3.4200    2.3460   -0.3720 C   0  0  0  0  0  0  0  0  0  0  0  0
   -2.1820    3.2090   -3.0380 C   0  0  0  0  0  0  0  0  0  0  0  0
   -0.5990    1.6620   -4.0380 C   0  0  0  0  0  0  0  0  0  0  0  0
   -3.3340    2.1500    2.0140 C   0  0  0  0  0  0  0  0  0  0  0  0
    0.1040   -2.8980    0.6960 C   0  0  0  0  0  0  0  0  0  0  0  0
    3.4020    3.6510    0.1530 C   0  0  0  0  0  0  0  0  0  0  0  0
   -1.5990    2.6370   -4.1800 C   0  0  0  0  0  0  0  0  0  0  0  0
   -3.5320    3.4350    1.4150 O   0  0  0  0  0  0  0  0  0  0  0  0
   -4.7590    1.6410    2.3160 C   0  0  0  0  0  0  0  0  0  0  0  0
    0.2010   -4.2250    1.0130 O   0  0  0  0  0  0  0  0  0  0  0  0
    4.5650    4.3600    0.2850 O   0  0  0  0  0  0  0  0  0  0  0  0
   -4.5950    4.0710    2.1410 C   0  0  0  0  0  0  0  0  0  0  0  0
   -5.5620    2.9330    2.5470 C   0  0  0  0  0  0  0  0  0  0  0  0
   -4.7890    0.7700    3.4450 O   0  0  0  0  0  0  0  0  0  0  0  0
    1.3460   -4.8640    0.4220 C   0  0  0  0  0  0  0  0  0  0  0  0
    4.8760    5.1580   -0.8700 C   0  0  0  0  0  0  0  0  0  0  0  0
   -5.2340    5.1170    1.3910 N   0  0  0  0  0  0  0  0  0  0  0  0
   -6.1730    5.9600    1.8570 C   0  0  0  0  0  0  0  0  0  0  0  0
   -5.0210    5.4590    0.1000 C   0  0  0  0  0  0  0  0  0  0  0  0
   -6.5260    6.8180    0.8180 C   0  0  0  0  0  0  0  0  0  0  0  0
   -6.7550    6.0680    3.0780 N   0  0  0  0  0  0  0  0  0  0  0  0
   -5.8030    6.4930   -0.2630 N   0  0  0  0  0  0  0  0  0  0  0  0
   -7.5010    7.8080    1.0390 C   0  0  0  0  0  0  0  0  0  0  0  0
   -7.6970    7.0250    3.2930 C   0  0  0  0  0  0  0  0  0  0  0  0
   -7.8370    8.6360    0.0200 N   0  0  0  0  0  0  0  0  0  0  0  0
   -8.0530    7.8700    2.2870 N   0  0  0  0  0  0  0  0  0  0  0  0
   -8.7200    9.6270    0.0160 C   0  0  0  0  0  0  0  0  0  0  0  0
   -8.9110   10.3500   -1.1460 C   0  0  0  0  0  0  0  0  0  0  0  0
   -9.3740    9.9380    1.0040 O   0  0  0  0  0  0  0  0  0  0  0  0
   -8.7230   11.7530   -1.1600 C   0  0  0  0  0  0  0  0  0  0  0  0
   -9.3000    9.7020   -2.3430 C   0  0  0  0  0  0  0  0  0  0  0  0
   -8.9170   12.4890   -2.3440 C   0  0  0  0  0  0  0  0  0  0  0  0
   -9.4940   10.4400   -3.5250 C   0  0  0  0  0  0  0  0  0  0  0  0
   -9.3030   11.8330   -3.5260 C   0  0  0  0  0  0  0  0  0  0  0  0
   -1.3720   -0.8670   -1.5150 H   0  0  0  0  0  0  0  0  0  0  0  0
    0.9690    0.1230    1.8570 H   0  0  0  0  0  0  0  0  0  0  0  0
    0.1220    3.9100    0.7750 H   0  0  0  0  0  0  0  0  0  0  0  0
    2.2780    0.6740   -0.8870 H   0  0  0  0  0  0  0  0  0  0  0  0
   -2.1910    3.2640   -0.9540 H   0  0  0  0  0  0  0  0  0  0  0  0
    0.5440    0.5510   -2.6850 H   0  0  0  0  0  0  0  0  0  0  0  0
   -3.0530    1.1140    0.1260 H   0  0  0  0  0  0  0  0  0  0  0  0
   -2.4110    0.2560    1.5390 H   0  0  0  0  0  0  0  0  0  0  0  0
   -1.1160   -3.1860   -1.0040 H   0  0  0  0  0  0  0  0  0  0  0  0
    1.1990   -2.2080    2.3660 H   0  0  0  0  0  0  0  0  0  0  0  0
    2.1580    5.1480    0.9750 H   0  0  0  0  0  0  0  0  0  0  0  0
    4.3030    1.9330   -0.6830 H   0  0  0  0  0  0  0  0  0  0  0  0
   -2.8930    3.9370   -3.1390 H   0  0  0  0  0  0  0  0  0  0  0  0
   -0.1590    1.2570   -4.8670 H   0  0  0  0  0  0  0  0  0  0  0  0
   -2.7750    2.2750    2.9500 H   0  0  0  0  0  0  0  0  0  0  0  0
   -1.8900    2.9410   -5.1120 H   0  0  0  0  0  0  0  0  0  0  0  0
   -5.1690    1.1090    1.4520 H   0  0  0  0  0  0  0  0  0  0  0  0
   -4.1550    4.5190    3.0410 H   0  0  0  0  0  0  0  0  0  0  0  0
   -6.4630    2.9310    1.9260 H   0  0  0  0  0  0  0  0  0  0  0  0
   -5.8600    3.0420    3.5940 H   0  0  0  0  0  0  0  0  0  0  0  0
   -4.2400    0.0000    3.1860 H   0  0  0  0  0  0  0  0  0  0  0  0
    1.3440   -5.9110    0.7240 H   0  0  0  0  0  0  0  0  0  0  0  0
    1.3050   -4.8230   -0.6690 H   0  0  0  0  0  0  0  0  0  0  0  0
    2.2780   -4.4110    0.7700 H   0  0  0  0  0  0  0  0  0  0  0  0
    5.8100    5.6840   -0.6780 H   0  0  0  0  0  0  0  0  0  0  0  0
    5.0110    4.5360   -1.7590 H   0  0  0  0  0  0  0  0  0  0  0  0
    4.0980    5.9020   -1.0610 H   0  0  0  0  0  0  0  0  0  0  0  0
   -4.3620    5.0040   -0.5340 H   0  0  0  0  0  0  0  0  0  0  0  0
   -8.1370    7.1090    4.2100 H   0  0  0  0  0  0  0  0  0  0  0  0
   -7.3700    8.4840   -0.8170 H   0  0  0  0  0  0  0  0  0  0  0  0
   -8.4380   12.2490   -0.3100 H   0  0  0  0  0  0  0  0  0  0  0  0
   -9.4490    8.6890   -2.3620 H   0  0  0  0  0  0  0  0  0  0  0  0
   -8.7770   13.5020   -2.3450 H   0  0  0  0  0  0  0  0  0  0  0  0
   -9.7760    9.9630   -4.3850 H   0  0  0  0  0  0  0  0  0  0  0  0
   -9.4440   12.3680   -4.3860 H   0  0  0  0  0  0  0  0  0  0  0  0
  1  3  1  0  0  0  0
  1  2  1  0  0  0  0
  1  5  1  0  0  0  0
  1  4  1  0  0  0  0
  2  7  2  0  0  0  0
  2  6  1  0  0  0  0
  3  8  2  0  0  0  0
  3  9  1  0  0  0  0
  4 10  2  0  0  0  0
  4 11  1  0  0  0  0
  5 12  1  0  0  0  0
  6 13  2  0  0  0  0
  6 50  1  0  0  0  0
  7 14  1  0  0  0  0
  7 51  1  0  0  0  0
  8 15  1  0  0  0  0
  8 52  1  0  0  0  0
  9 16  2  0  0  0  0
  9 53  1  0  0  0  0
 10 54  1  0  0  0  0
 10 17  1  0  0  0  0
 11 55  1  0  0  0  0
 11 18  2  0  0  0  0
 12 57  1  0  0  0  0
 12 19  1  0  0  0  0
 12 56  1  0  0  0  0
 13 20  1  0  0  0  0
 13 58  1  0  0  0  0
 14 59  1  0  0  0  0
 14 20  2  0  0  0  0
 15 60  1  0  0  0  0
 15 21  2  0  0  0  0
 16 21  1  0  0  0  0
 16 61  1  0  0  0  0
 17 22  2  0  0  0  0
 17 62  1  0  0  0  0
 18 22  1  0  0  0  0
 18 63  1  0  0  0  0
 19 24  1  0  0  0  0
 19 64  1  0  0  0  0
 19 23  1  0  0  0  0
 20 25  1  0  0  0  0
 21 26  1  0  0  0  0
 22 65  1  0  0  0  0
 23 27  1  0  0  0  0
 24 66  1  0  0  0  0
 24 28  1  0  0  0  0
 24 29  1  0  0  0  0
 25 30  1  0  0  0  0
 26 31  1  0  0  0  0
 27 28  1  0  0  0  0
 27 67  1  0  0  0  0
 27 32  1  0  0  0  0
 28 69  1  0  0  0  0
 28 68  1  0  0  0  0
 29 70  1  0  0  0  0
 30 71  1  0  0  0  0
 30 73  1  0  0  0  0
 30 72  1  0  0  0  0
 31 74  1  0  0  0  0
 31 75  1  0  0  0  0
 31 76  1  0  0  0  0
 32 33  1  0  0  0  0
 32 34  1  0  0  0  0
 33 36  2  0  0  0  0
 33 35  1  0  0  0  0
 34 37  2  0  0  0  0
 34 77  1  0  0  0  0
 35 38  2  0  0  0  0
 35 37  1  0  0  0  0
 36 39  1  0  0  0  0
 38 41  1  0  0  0  0
 38 40  1  0  0  0  0
 39 78  1  0  0  0  0
 39 41  2  0  0  0  0
 40 42  1  0  0  0  0
 40 79  1  0  0  0  0
 42 44  2  0  0  0  0
 42 43  1  0  0  0  0
 43 45  2  0  0  0  0
 43 46  1  0  0  0  0
 45 80  1  0  0  0  0
 45 47  1  0  0  0  0
 46 48  2  0  0  0  0
 46 81  1  0  0  0  0
 47 49  2  0  0  0  0
 47 82  1  0  0  0  0
 48 49  1  0  0  0  0
 48 83  1  0  0  0  0
 49 84  1  0  0  0  0
M  END
