decoy-26
 OpenBabel06062114503D

 40 42  0  0  0  0  0  0  0  0999 V2000
   -0.7000    0.1050   -0.8140 C   0  0  0  0  0  0  0  0  0  0  0  0
   -1.2240   -0.8990    0.0310 C   0  0  0  0  0  0  0  0  0  0  0  0
    0.6860    0.1550   -1.0100 C   0  0  0  0  0  0  0  0  0  0  0  0
   -1.6080    1.0020   -1.4310 C   0  0  0  0  0  0  0  0  0  0  0  0
   -0.3970   -1.7620    0.6570 N   0  0  0  0  0  0  0  0  0  0  0  0
   -2.6120   -1.0120    0.2380 C   0  0  0  0  0  0  0  0  0  0  0  0
    1.5290   -0.6640   -0.3490 N   0  0  0  0  0  0  0  0  0  0  0  0
    1.1210    0.9360   -1.8530 O   0  0  0  0  0  0  0  0  0  0  0  0
   -3.0020    0.9050   -1.2250 C   0  0  0  0  0  0  0  0  0  0  0  0
    1.0300   -1.6960    0.5620 C   0  0  0  0  0  0  0  0  0  0  0  0
   -3.5050   -0.1180   -0.3840 C   0  0  0  0  0  0  0  0  0  0  0  0
    2.8880   -0.6340   -0.6160 C   0  0  0  0  0  0  0  0  0  0  0  0
   -4.0480    2.0520   -2.0280 S   0  0  0  0  0  0  0  0  0  0  0  0
    1.5720   -1.5490    2.0070 C   0  0  0  0  0  0  0  0  0  0  0  0
   -5.1610   -0.3290   -0.0750 Cl  0  0  0  0  0  0  0  0  0  0  0  0
    3.7460    0.3980   -0.1330 C   0  0  0  0  0  0  0  0  0  0  0  0
    3.4290   -1.6590   -1.4290 C   0  0  0  0  0  0  0  0  0  0  0  0
   -5.1220    1.2870   -3.0700 N   0  0  0  0  0  0  0  0  0  0  0  0
   -3.2950    3.1970   -2.8360 O   0  0  0  0  0  0  0  0  0  0  0  0
   -4.9320    2.8140   -0.9470 O   0  0  0  0  0  0  0  0  0  0  0  0
    5.1230    0.3560   -0.4630 C   0  0  0  0  0  0  0  0  0  0  0  0
    3.2370    1.5110    0.7120 C   0  0  0  0  0  0  0  0  0  0  0  0
    4.7970   -1.6830   -1.7470 C   0  0  0  0  0  0  0  0  0  0  0  0
    5.6450   -0.6760   -1.2610 C   0  0  0  0  0  0  0  0  0  0  0  0
   -1.2490    1.7390   -2.0430 H   0  0  0  0  0  0  0  0  0  0  0  0
   -0.7870   -2.4460    1.2250 H   0  0  0  0  0  0  0  0  0  0  0  0
   -2.9730   -1.7480    0.8510 H   0  0  0  0  0  0  0  0  0  0  0  0
    1.3410   -2.6760    0.1880 H   0  0  0  0  0  0  0  0  0  0  0  0
    1.2340   -0.6090    2.4460 H   0  0  0  0  0  0  0  0  0  0  0  0
    2.6630   -1.5720    2.0150 H   0  0  0  0  0  0  0  0  0  0  0  0
    1.2150   -2.3710    2.6320 H   0  0  0  0  0  0  0  0  0  0  0  0
    2.8240   -2.3940   -1.8040 H   0  0  0  0  0  0  0  0  0  0  0  0
   -6.0480    1.1630   -2.8070 H   0  0  0  0  0  0  0  0  0  0  0  0
   -4.8160    0.9640   -3.9310 H   0  0  0  0  0  0  0  0  0  0  0  0
    5.7620    1.0800   -0.1270 H   0  0  0  0  0  0  0  0  0  0  0  0
    2.4900    2.0870    0.1650 H   0  0  0  0  0  0  0  0  0  0  0  0
    4.0280    2.2000    1.0130 H   0  0  0  0  0  0  0  0  0  0  0  0
    2.7830    1.1150    1.6180 H   0  0  0  0  0  0  0  0  0  0  0  0
    5.1740   -2.4300   -2.3340 H   0  0  0  0  0  0  0  0  0  0  0  0
    6.6410   -0.6920   -1.4930 H   0  0  0  0  0  0  0  0  0  0  0  0
  1  2  2  0  0  0  0
  1  3  1  0  0  0  0
  1  4  1  0  0  0  0
  2  6  1  0  0  0  0
  2  5  1  0  0  0  0
  3  7  1  0  0  0  0
  3  8  2  0  0  0  0
  4  9  2  0  0  0  0
  4 25  1  0  0  0  0
  5 26  1  0  0  0  0
  5 10  1  0  0  0  0
  6 27  1  0  0  0  0
  6 11  2  0  0  0  0
  7 10  1  0  0  0  0
  7 12  1  0  0  0  0
  9 11  1  0  0  0  0
  9 13  1  0  0  0  0
 10 28  1  0  0  0  0
 10 14  1  0  0  0  0
 11 15  1  0  0  0  0
 12 16  2  0  0  0  0
 12 17  1  0  0  0  0
 13 20  2  0  0  0  0
 13 18  1  0  0  0  0
 13 19  2  0  0  0  0
 14 30  1  0  0  0  0
 14 29  1  0  0  0  0
 14 31  1  0  0  0  0
 16 22  1  0  0  0  0
 16 21  1  0  0  0  0
 17 23  2  0  0  0  0
 17 32  1  0  0  0  0
 18 33  1  0  0  0  0
 18 34  1  0  0  0  0
 21 35  1  0  0  0  0
 21 24  2  0  0  0  0
 22 37  1  0  0  0  0
 22 38  1  0  0  0  0
 22 36  1  0  0  0  0
 23 24  1  0  0  0  0
 23 39  1  0  0  0  0
 24 40  1  0  0  0  0
M  END
