decoy-600
 OpenBabel06062114513D

 40 43  0  0  0  0  0  0  0  0999 V2000
   -0.0130    1.4500    0.0270 C   0  0  0  0  0  0  0  0  0  0  0  0
   -0.0050    0.0230    0.0160 C   0  0  0  0  0  0  0  0  0  0  0  0
    1.1730    2.2270    0.0050 C   0  0  0  0  0  0  0  0  0  0  0  0
   -1.1990    2.1190    0.0600 N   0  0  0  0  0  0  0  0  0  0  0  0
   -1.1910   -0.7530    0.0170 C   0  0  0  0  0  0  0  0  0  0  0  0
    1.1810   -0.6460    0.0020 N   0  0  0  0  0  0  0  0  0  0  0  0
    1.1180    3.6430    0.0160 C   0  0  0  0  0  0  0  0  0  0  0  0
   -1.3130    3.4690    0.0710 C   0  0  0  0  0  0  0  0  0  0  0  0
   -1.1350   -2.1690    0.0040 C   0  0  0  0  0  0  0  0  0  0  0  0
    1.2960   -1.9950   -0.0120 C   0  0  0  0  0  0  0  0  0  0  0  0
    2.3100    4.4260   -0.0050 C   0  0  0  0  0  0  0  0  0  0  0  0
   -0.1540    4.2600    0.0480 C   0  0  0  0  0  0  0  0  0  0  0  0
   -2.3280   -2.9520    0.0070 C   0  0  0  0  0  0  0  0  0  0  0  0
    0.1370   -2.7870   -0.0120 C   0  0  0  0  0  0  0  0  0  0  0  0
    2.4370    5.5360   -0.8770 C   0  0  0  0  0  0  0  0  0  0  0  0
    3.3990    4.1160    0.8470 C   0  0  0  0  0  0  0  0  0  0  0  0
   -2.4820   -4.0480   -0.8790 C   0  0  0  0  0  0  0  0  0  0  0  0
   -3.3910   -2.6560    0.8960 C   0  0  0  0  0  0  0  0  0  0  0  0
    3.6140    6.3080   -0.8980 C   0  0  0  0  0  0  0  0  0  0  0  0
    4.5750    4.8890    0.8280 C   0  0  0  0  0  0  0  0  0  0  0  0
   -3.6590   -4.8210   -0.8760 C   0  0  0  0  0  0  0  0  0  0  0  0
   -4.5670   -3.4290    0.9010 C   0  0  0  0  0  0  0  0  0  0  0  0
    4.6830    5.9850   -0.0450 C   0  0  0  0  0  0  0  0  0  0  0  0
   -4.7020   -4.5110    0.0140 C   0  0  0  0  0  0  0  0  0  0  0  0
    2.0840    1.7620   -0.0360 H   0  0  0  0  0  0  0  0  0  0  0  0
   -2.1030   -0.2890    0.0110 H   0  0  0  0  0  0  0  0  0  0  0  0
   -2.2380    3.9000    0.0990 H   0  0  0  0  0  0  0  0  0  0  0  0
    2.2220   -2.4270   -0.0190 H   0  0  0  0  0  0  0  0  0  0  0  0
   -0.2480    5.2790    0.0720 H   0  0  0  0  0  0  0  0  0  0  0  0
    0.2310   -3.8060   -0.0070 H   0  0  0  0  0  0  0  0  0  0  0  0
    1.6790    5.7830   -1.5180 H   0  0  0  0  0  0  0  0  0  0  0  0
    3.3410    3.3330    1.5030 H   0  0  0  0  0  0  0  0  0  0  0  0
   -1.7440   -4.2850   -1.5470 H   0  0  0  0  0  0  0  0  0  0  0  0
   -3.3120   -1.8840    1.5620 H   0  0  0  0  0  0  0  0  0  0  0  0
    3.6920    7.1040   -1.5360 H   0  0  0  0  0  0  0  0  0  0  0  0
    5.3510    4.6550    1.4510 H   0  0  0  0  0  0  0  0  0  0  0  0
   -3.7570   -5.6060   -1.5240 H   0  0  0  0  0  0  0  0  0  0  0  0
   -5.3240   -3.2060    1.5510 H   0  0  0  0  0  0  0  0  0  0  0  0
    5.5370    6.5460   -0.0600 H   0  0  0  0  0  0  0  0  0  0  0  0
   -5.5560   -5.0730    0.0160 H   0  0  0  0  0  0  0  0  0  0  0  0
  1  4  2  0  0  0  0
  1  2  1  0  0  0  0
  1  3  1  0  0  0  0
  2  5  2  0  0  0  0
  2  6  1  0  0  0  0
  3  7  2  0  0  0  0
  3 25  1  0  0  0  0
  4  8  1  0  0  0  0
  5  9  1  0  0  0  0
  5 26  1  0  0  0  0
  6 10  2  0  0  0  0
  7 12  1  0  0  0  0
  7 11  1  0  0  0  0
  8 27  1  0  0  0  0
  8 12  2  0  0  0  0
  9 13  1  0  0  0  0
  9 14  2  0  0  0  0
 10 14  1  0  0  0  0
 10 28  1  0  0  0  0
 11 16  2  0  0  0  0
 11 15  1  0  0  0  0
 12 29  1  0  0  0  0
 13 18  2  0  0  0  0
 13 17  1  0  0  0  0
 14 30  1  0  0  0  0
 15 19  2  0  0  0  0
 15 31  1  0  0  0  0
 16 32  1  0  0  0  0
 16 20  1  0  0  0  0
 17 21  2  0  0  0  0
 17 33  1  0  0  0  0
 18 22  1  0  0  0  0
 18 34  1  0  0  0  0
 19 23  1  0  0  0  0
 19 35  1  0  0  0  0
 20 36  1  0  0  0  0
 20 23  2  0  0  0  0
 21 24  1  0  0  0  0
 21 37  1  0  0  0  0
 22 38  1  0  0  0  0
 22 24  2  0  0  0  0
 23 39  1  0  0  0  0
 24 40  1  0  0  0  0
M  END
