decoy-532
 OpenBabel06062114513D

 34 35  0  0  0  0  0  0  0  0999 V2000
    0.1160    1.2750   -0.0780 N   0  0  0  0  0  0  0  0  0  0  0  0
    0.1250   -0.1650   -0.2840 C   0  0  0  0  0  0  0  0  0  0  0  0
    1.1190    1.9100    0.5700 C   0  0  0  0  0  0  0  0  0  0  0  0
   -0.9330    2.0180   -0.5480 C   0  0  0  0  0  0  0  0  0  0  0  0
    0.4140   -0.8810    0.9250 O   0  0  0  0  0  0  0  0  0  0  0  0
    1.1640   -0.6410   -1.3180 C   0  0  0  0  0  0  0  0  0  0  0  0
    1.0820    3.2280    0.7440 N   0  0  0  0  0  0  0  0  0  0  0  0
    2.0960    1.3380    1.0340 O   0  0  0  0  0  0  0  0  0  0  0  0
   -0.9920    3.3520   -0.3850 C   0  0  0  0  0  0  0  0  0  0  0  0
    1.0690   -2.1190    0.5910 C   0  0  0  0  0  0  0  0  0  0  0  0
    1.3510   -2.1140   -0.9350 C   0  0  0  0  0  0  0  0  0  0  0  0
    0.0490    3.9770    0.2840 C   0  0  0  0  0  0  0  0  0  0  0  0
    2.3470   -2.2520    1.4550 C   0  0  0  0  0  0  0  0  0  0  0  0
    0.4120   -2.9380   -1.6280 O   0  0  0  0  0  0  0  0  0  0  0  0
    0.0580    5.3050    0.4850 N   0  0  0  0  0  0  0  0  0  0  0  0
    1.9780   -2.1970    2.8470 O   0  0  0  0  0  0  0  0  0  0  0  0
    3.1560   -2.2510    3.8630 P   0  0  0  0  0  0  0  0  0  0  0  0
    2.5460   -2.2070    5.2770 O   0  0  0  0  0  0  0  0  0  0  0  0
    3.9680   -3.5570    3.7490 O   0  0  0  0  0  0  0  0  0  0  0  0
    4.0270   -1.1090    3.7340 O   0  0  0  0  0  0  0  0  0  0  0  0
   -0.8590   -0.5230   -0.6170 H   0  0  0  0  0  0  0  0  0  0  0  0
   -1.6810    1.5810   -1.0390 H   0  0  0  0  0  0  0  0  0  0  0  0
    0.8050   -0.5180   -2.3430 H   0  0  0  0  0  0  0  0  0  0  0  0
    2.1110   -0.1070   -1.2060 H   0  0  0  0  0  0  0  0  0  0  0  0
   -1.7600    3.8760   -0.7370 H   0  0  0  0  0  0  0  0  0  0  0  0
    0.3950   -2.9420    0.8460 H   0  0  0  0  0  0  0  0  0  0  0  0
    2.3590   -2.4590   -1.1830 H   0  0  0  0  0  0  0  0  0  0  0  0
    2.8270   -3.2080    1.2240 H   0  0  0  0  0  0  0  0  0  0  0  0
    3.0320   -1.4370    1.1970 H   0  0  0  0  0  0  0  0  0  0  0  0
    0.6450   -2.8460   -2.5760 H   0  0  0  0  0  0  0  0  0  0  0  0
   -0.6750    5.8520    0.1600 H   0  0  0  0  0  0  0  0  0  0  0  0
    0.7980    5.7200    0.9550 H   0  0  0  0  0  0  0  0  0  0  0  0
    3.3160   -2.2420    5.8820 H   0  0  0  0  0  0  0  0  0  0  0  0
    4.3670   -3.5270    2.8550 H   0  0  0  0  0  0  0  0  0  0  0  0
  1  3  1  0  0  0  0
  1  2  1  0  0  0  0
  1  4  1  0  0  0  0
  2 21  1  0  0  0  0
  2  5  1  0  0  0  0
  2  6  1  0  0  0  0
  3  7  1  0  0  0  0
  3  8  2  0  0  0  0
  4  9  2  0  0  0  0
  4 22  1  0  0  0  0
  5 10  1  0  0  0  0
  6 24  1  0  0  0  0
  6 11  1  0  0  0  0
  6 23  1  0  0  0  0
  7 12  2  0  0  0  0
  9 12  1  0  0  0  0
  9 25  1  0  0  0  0
 10 11  1  0  0  0  0
 10 26  1  0  0  0  0
 10 13  1  0  0  0  0
 11 27  1  0  0  0  0
 11 14  1  0  0  0  0
 12 15  1  0  0  0  0
 13 16  1  0  0  0  0
 13 28  1  0  0  0  0
 13 29  1  0  0  0  0
 14 30  1  0  0  0  0
 15 32  1  0  0  0  0
 15 31  1  0  0  0  0
 16 17  1  0  0  0  0
 17 18  1  0  0  0  0
 17 19  1  0  0  0  0
 17 20  2  0  0  0  0
 18 33  1  0  0  0  0
 19 34  1  0  0  0  0
M  END
