decoy-837
 OpenBabel06062114513D

 24 24  0  0  0  0  0  0  0  0999 V2000
   -0.0610    1.3960   -0.0210 C   0  0  0  0  0  0  0  0  0  0  0  0
   -0.0410   -0.0260    0.0240 C   0  0  0  0  0  0  0  0  0  0  0  0
    1.1690    2.0940   -0.0490 C   0  0  0  0  0  0  0  0  0  0  0  0
   -1.3210    2.1910    0.0070 C   0  0  0  0  0  0  0  0  0  0  0  0
    1.2080   -0.6890    0.0330 C   0  0  0  0  0  0  0  0  0  0  0  0
   -1.2790   -0.8550    0.0160 C   0  0  0  0  0  0  0  0  0  0  0  0
    2.4180    1.4310   -0.0400 C   0  0  0  0  0  0  0  0  0  0  0  0
   -2.0110    2.2730    1.8070 Br  0  0  0  0  0  0  0  0  0  0  0  0
    2.4380    0.0090    0.0050 C   0  0  0  0  0  0  0  0  0  0  0  0
   -1.9940   -0.9580   -1.7730 Br  0  0  0  0  0  0  0  0  0  0  0  0
    3.6560    2.2600   -0.0320 C   0  0  0  0  0  0  0  0  0  0  0  0
    3.6980   -0.7860   -0.0230 C   0  0  0  0  0  0  0  0  0  0  0  0
    4.3710    2.3630    1.7570 Br  0  0  0  0  0  0  0  0  0  0  0  0
    4.3880   -0.8680   -1.8230 Br  0  0  0  0  0  0  0  0  0  0  0  0
    1.1540    3.1180   -0.0570 H   0  0  0  0  0  0  0  0  0  0  0  0
   -1.1630    3.2180   -0.3280 H   0  0  0  0  0  0  0  0  0  0  0  0
   -2.0750    1.7580   -0.6500 H   0  0  0  0  0  0  0  0  0  0  0  0
    1.2230   -1.7130    0.0410 H   0  0  0  0  0  0  0  0  0  0  0  0
   -1.0870   -1.8770    0.3490 H   0  0  0  0  0  0  0  0  0  0  0  0
   -2.0340   -0.4440    0.6850 H   0  0  0  0  0  0  0  0  0  0  0  0
    4.4110    1.8480   -0.7010 H   0  0  0  0  0  0  0  0  0  0  0  0
    3.4640    3.2820   -0.3650 H   0  0  0  0  0  0  0  0  0  0  0  0
    4.4520   -0.3530    0.6340 H   0  0  0  0  0  0  0  0  0  0  0  0
    3.5400   -1.8130    0.3120 H   0  0  0  0  0  0  0  0  0  0  0  0
  1  4  1  0  0  0  0
  1  2  2  0  0  0  0
  1  3  1  0  0  0  0
  2  5  1  0  0  0  0
  2  6  1  0  0  0  0
  3  7  2  0  0  0  0
  3 15  1  0  0  0  0
  4  8  1  0  0  0  0
  4 16  1  0  0  0  0
  4 17  1  0  0  0  0
  5 18  1  0  0  0  0
  5  9  2  0  0  0  0
  6 19  1  0  0  0  0
  6 20  1  0  0  0  0
  6 10  1  0  0  0  0
  7 11  1  0  0  0  0
  7  9  1  0  0  0  0
  9 12  1  0  0  0  0
 11 13  1  0  0  0  0
 11 21  1  0  0  0  0
 11 22  1  0  0  0  0
 12 24  1  0  0  0  0
 12 23  1  0  0  0  0
 12 14  1  0  0  0  0
M  END
