decoy-693
 OpenBabel06062114513D

 36 38  0  0  0  0  0  0  0  0999 V2000
   -0.0070   -1.7290   -0.2410 C   0  0  0  0  0  0  0  0  0  0  0  0
    1.3890   -1.6680    0.3080 C   0  0  0  0  0  0  0  0  0  0  0  0
   -0.7970   -2.9350    0.3420 C   0  0  0  0  0  0  0  0  0  0  0  0
   -0.7470   -0.5210    0.0520 O   0  0  0  0  0  0  0  0  0  0  0  0
    2.5530   -1.9070   -0.4760 C   0  0  0  0  0  0  0  0  0  0  0  0
    1.5620   -1.3340    1.6750 C   0  0  0  0  0  0  0  0  0  0  0  0
   -2.1240   -3.0320   -0.1990 N   0  0  0  0  0  0  0  0  0  0  0  0
   -0.3930    0.6520   -0.7060 C   0  0  0  0  0  0  0  0  0  0  0  0
    3.8340   -1.8110    0.1070 C   0  0  0  0  0  0  0  0  0  0  0  0
    2.5030   -2.3270   -2.1210 Cl  0  0  0  0  0  0  0  0  0  0  0  0
    2.8410   -1.2390    2.2490 C   0  0  0  0  0  0  0  0  0  0  0  0
   -3.2770   -2.8340    0.4640 C   0  0  0  0  0  0  0  0  0  0  0  0
   -2.4520   -3.3450   -1.4700 C   0  0  0  0  0  0  0  0  0  0  0  0
   -1.2420    1.7760   -0.2570 C   0  0  0  0  0  0  0  0  0  0  0  0
    3.9820   -1.4770    1.4650 C   0  0  0  0  0  0  0  0  0  0  0  0
   -4.3150   -3.0260   -0.4360 C   0  0  0  0  0  0  0  0  0  0  0  0
   -3.7870   -3.3430   -1.6260 N   0  0  0  0  0  0  0  0  0  0  0  0
   -1.2250    2.3440    1.0200 C   0  0  0  0  0  0  0  0  0  0  0  0
   -2.1660    2.4250   -1.0690 C   0  0  0  0  0  0  0  0  0  0  0  0
    5.5240   -1.3630    2.1530 Cl  0  0  0  0  0  0  0  0  0  0  0  0
   -2.3470    3.6460    1.2500 S   0  0  0  0  0  0  0  0  0  0  0  0
   -0.1880    1.8860    2.2740 Cl  0  0  0  0  0  0  0  0  0  0  0  0
   -2.8180    3.4550   -0.4050 C   0  0  0  0  0  0  0  0  0  0  0  0
    0.0030   -1.8670   -1.3240 H   0  0  0  0  0  0  0  0  0  0  0  0
   -0.2630   -3.8650    0.1230 H   0  0  0  0  0  0  0  0  0  0  0  0
   -0.8510   -2.8420    1.4300 H   0  0  0  0  0  0  0  0  0  0  0  0
    0.7510   -1.1490    2.2690 H   0  0  0  0  0  0  0  0  0  0  0  0
    0.6550    0.9180   -0.5510 H   0  0  0  0  0  0  0  0  0  0  0  0
   -0.5470    0.4620   -1.7720 H   0  0  0  0  0  0  0  0  0  0  0  0
    4.6690   -1.9860   -0.4590 H   0  0  0  0  0  0  0  0  0  0  0  0
    2.9350   -0.9930    3.2370 H   0  0  0  0  0  0  0  0  0  0  0  0
   -3.3810   -2.5800    1.4480 H   0  0  0  0  0  0  0  0  0  0  0  0
   -1.7900   -3.5580   -2.2180 H   0  0  0  0  0  0  0  0  0  0  0  0
   -5.3120   -2.9430   -0.2290 H   0  0  0  0  0  0  0  0  0  0  0  0
   -2.3440    2.1870   -2.0470 H   0  0  0  0  0  0  0  0  0  0  0  0
   -3.5190    4.0490   -0.8480 H   0  0  0  0  0  0  0  0  0  0  0  0
  1 24  1  0  0  0  0
  1  4  1  0  0  0  0
  1  2  1  0  0  0  0
  1  3  1  0  0  0  0
  2  6  2  0  0  0  0
  2  5  1  0  0  0  0
  3 26  1  0  0  0  0
  3  7  1  0  0  0  0
  3 25  1  0  0  0  0
  4  8  1  0  0  0  0
  5  9  2  0  0  0  0
  5 10  1  0  0  0  0
  6 11  1  0  0  0  0
  6 27  1  0  0  0  0
  7 12  1  0  0  0  0
  7 13  1  0  0  0  0
  8 28  1  0  0  0  0
  8 14  1  0  0  0  0
  8 29  1  0  0  0  0
  9 15  1  0  0  0  0
  9 30  1  0  0  0  0
 11 31  1  0  0  0  0
 11 15  2  0  0  0  0
 12 32  1  0  0  0  0
 12 16  2  0  0  0  0
 13 17  2  0  0  0  0
 13 33  1  0  0  0  0
 14 18  2  0  0  0  0
 14 19  1  0  0  0  0
 15 20  1  0  0  0  0
 16 34  1  0  0  0  0
 16 17  1  0  0  0  0
 18 21  1  0  0  0  0
 18 22  1  0  0  0  0
 19 23  2  0  0  0  0
 19 35  1  0  0  0  0
 21 23  1  0  0  0  0
 23 36  1  0  0  0  0
M  END
