decoy-888
 OpenBabel06062114513D

 42 45  0  0  0  0  0  0  0  0999 V2000
    0.1400    1.3950   -0.0120 C   0  0  0  0  0  0  0  0  0  0  0  0
    0.1010    0.0580    0.4780 C   0  0  0  0  0  0  0  0  0  0  0  0
    1.2840    2.2340   -0.0300 C   0  0  0  0  0  0  0  0  0  0  0  0
   -1.0350    1.9430   -0.4280 N   0  0  0  0  0  0  0  0  0  0  0  0
    1.2300   -0.7140    0.8600 C   0  0  0  0  0  0  0  0  0  0  0  0
   -1.1110   -0.5620    0.5120 N   0  0  0  0  0  0  0  0  0  0  0  0
    1.5130    3.1740   -1.0640 C   0  0  0  0  0  0  0  0  0  0  0  0
    2.1770    2.1810    0.9980 N   0  0  0  0  0  0  0  0  0  0  0  0
   -2.2370    1.3130   -0.4020 C   0  0  0  0  0  0  0  0  0  0  0  0
    1.1790   -1.6490    1.9220 C   0  0  0  0  0  0  0  0  0  0  0  0
    2.3940   -0.6010    0.1600 N   0  0  0  0  0  0  0  0  0  0  0  0
   -2.2800   -0.0020    0.1070 C   0  0  0  0  0  0  0  0  0  0  0  0
    2.6520    3.9980   -1.0150 C   0  0  0  0  0  0  0  0  0  0  0  0
    3.2850    2.9610    1.0780 C   0  0  0  0  0  0  0  0  0  0  0  0
   -3.3970    1.9690   -0.8550 C   0  0  0  0  0  0  0  0  0  0  0  0
    2.3220   -2.4060    2.2380 C   0  0  0  0  0  0  0  0  0  0  0  0
    3.5140   -1.3140    0.4370 C   0  0  0  0  0  0  0  0  0  0  0  0
   -3.4830   -0.7290    0.1820 C   0  0  0  0  0  0  0  0  0  0  0  0
    3.5500    3.8940    0.0620 C   0  0  0  0  0  0  0  0  0  0  0  0
   -4.6210    1.2520   -0.7850 C   0  0  0  0  0  0  0  0  0  0  0  0
    3.5030   -2.2400    1.4940 C   0  0  0  0  0  0  0  0  0  0  0  0
   -4.6650   -0.0830   -0.2710 C   0  0  0  0  0  0  0  0  0  0  0  0
   -5.8490    1.9480   -1.2660 C   0  0  0  0  0  0  0  0  0  0  0  0
   -5.9230   -0.8850   -0.1730 C   0  0  0  0  0  0  0  0  0  0  0  0
    0.8690    3.2550   -1.8550 H   0  0  0  0  0  0  0  0  0  0  0  0
    0.3260   -1.7750    2.4730 H   0  0  0  0  0  0  0  0  0  0  0  0
    2.8270    4.6740   -1.7630 H   0  0  0  0  0  0  0  0  0  0  0  0
    3.9160    2.8670    1.8750 H   0  0  0  0  0  0  0  0  0  0  0  0
   -3.4940    2.8490   -0.3400 H   0  0  0  0  0  0  0  0  0  0  0  0
    2.2940   -3.0770    3.0090 H   0  0  0  0  0  0  0  0  0  0  0  0
    4.3560   -1.1760   -0.1250 H   0  0  0  0  0  0  0  0  0  0  0  0
   -3.3610   -1.6070   -0.3300 H   0  0  0  0  0  0  0  0  0  0  0  0
    4.3800    4.4900    0.1060 H   0  0  0  0  0  0  0  0  0  0  0  0
    4.3380   -2.7860    1.7150 H   0  0  0  0  0  0  0  0  0  0  0  0
   -5.6450    2.9600   -1.6260 H   0  0  0  0  0  0  0  0  0  0  0  0
   -6.2920    1.3890   -2.0920 H   0  0  0  0  0  0  0  0  0  0  0  0
   -6.5720    2.0300   -0.4530 H   0  0  0  0  0  0  0  0  0  0  0  0
   -5.8240   -1.7980   -0.7630 H   0  0  0  0  0  0  0  0  0  0  0  0
   -6.1020   -1.1620    0.8680 H   0  0  0  0  0  0  0  0  0  0  0  0
   -6.8110   -0.3660   -0.5260 H   0  0  0  0  0  0  0  0  0  0  0  0
   -3.2400    2.2700   -1.8220 H   0  0  0  0  0  0  0  0  0  0  0  0
   -3.6150   -1.0320    1.1520 H   0  0  0  0  0  0  0  0  0  0  0  0
  1  2  2  0  0  0  0
  1  3  1  0  0  0  0
  1  4  1  0  0  0  0
  2  6  1  0  0  0  0
  2  5  1  0  0  0  0
  3  8  2  0  0  0  0
  3  7  1  0  0  0  0
  4  9  2  0  0  0  0
  5 10  2  0  0  0  0
  5 11  1  0  0  0  0
  6 12  2  0  0  0  0
  7 13  2  0  0  0  0
  7 25  1  0  0  0  0
  8 14  1  0  0  0  0
  9 12  1  0  0  0  0
  9 15  1  0  0  0  0
 10 16  1  0  0  0  0
 10 26  1  0  0  0  0
 11 17  2  0  0  0  0
 12 18  1  0  0  0  0
 13 19  1  0  0  0  0
 13 27  1  0  0  0  0
 14 28  1  0  0  0  0
 14 19  2  0  0  0  0
 15 20  1  0  0  0  0
 15 29  1  0  0  0  0
 15 41  1  0  0  0  0
 16 30  1  0  0  0  0
 16 21  2  0  0  0  0
 17 21  1  0  0  0  0
 17 31  1  0  0  0  0
 18 42  1  0  0  0  0
 18 22  1  0  0  0  0
 18 32  1  0  0  0  0
 19 33  1  0  0  0  0
 20 22  2  0  0  0  0
 20 23  1  0  0  0  0
 21 34  1  0  0  0  0
 22 24  1  0  0  0  0
 23 37  1  0  0  0  0
 23 35  1  0  0  0  0
 23 36  1  0  0  0  0
 24 39  1  0  0  0  0
 24 38  1  0  0  0  0
 24 40  1  0  0  0  0
M  END
