decoy-412
 OpenBabel06062114513D

 50 53  0  0  0  0  0  0  0  0999 V2000
   -0.2040    1.8770    0.9660 C   0  0  0  0  0  0  0  0  0  0  0  0
   -0.2440    0.9010   -0.0320 C   0  0  0  0  0  0  0  0  0  0  0  0
    0.9540    2.6420    1.0680 C   0  0  0  0  0  0  0  0  0  0  0  0
   -1.2200    2.1020    1.8280 C   0  0  0  0  0  0  0  0  0  0  0  0
   -0.2540    1.2670   -1.4000 C   0  0  0  0  0  0  0  0  0  0  0  0
   -0.2740   -0.4730    0.3050 C   0  0  0  0  0  0  0  0  0  0  0  0
    2.1310    2.0920    1.6280 C   0  0  0  0  0  0  0  0  0  0  0  0
    0.9700    3.9810    0.6110 C   0  0  0  0  0  0  0  0  0  0  0  0
   -2.4090    1.4490    1.8300 C   0  0  0  0  0  0  0  0  0  0  0  0
   -0.3140    0.2830   -2.4040 C   0  0  0  0  0  0  0  0  0  0  0  0
   -0.3330   -1.4560   -0.7000 C   0  0  0  0  0  0  0  0  0  0  0  0
    3.3020    2.8670    1.7270 C   0  0  0  0  0  0  0  0  0  0  0  0
    2.1420    4.7540    0.7120 C   0  0  0  0  0  0  0  0  0  0  0  0
   -3.4340    1.6840    0.9810 C   0  0  0  0  0  0  0  0  0  0  0  0
   -0.3560   -1.0780   -2.0540 C   0  0  0  0  0  0  0  0  0  0  0  0
    3.3080    4.1970    1.2690 C   0  0  0  0  0  0  0  0  0  0  0  0
   -4.5910    0.9180    1.0870 C   0  0  0  0  0  0  0  0  0  0  0  0
   -3.4040    2.6700   -0.0070 C   0  0  0  0  0  0  0  0  0  0  0  0
   -5.7620    1.4610    1.6640 C   0  0  0  0  0  0  0  0  0  0  0  0
   -4.6120   -0.4170    0.6160 C   0  0  0  0  0  0  0  0  0  0  0  0
   -3.4070    2.3190   -1.3780 C   0  0  0  0  0  0  0  0  0  0  0  0
   -3.3710    4.0410    0.3450 C   0  0  0  0  0  0  0  0  0  0  0  0
   -6.9320    0.6850    1.7670 C   0  0  0  0  0  0  0  0  0  0  0  0
   -5.7830   -1.1900    0.7190 C   0  0  0  0  0  0  0  0  0  0  0  0
   -3.3580    3.3140   -2.3730 C   0  0  0  0  0  0  0  0  0  0  0  0
   -3.3210    5.0350   -0.6500 C   0  0  0  0  0  0  0  0  0  0  0  0
   -6.9420   -0.6400    1.2940 C   0  0  0  0  0  0  0  0  0  0  0  0
   -3.3120    4.6710   -2.0090 C   0  0  0  0  0  0  0  0  0  0  0  0
   -1.1060    2.7880    2.5410 H   0  0  0  0  0  0  0  0  0  0  0  0
   -0.2320    2.2530   -1.6750 H   0  0  0  0  0  0  0  0  0  0  0  0
   -0.2570   -0.7680    1.2850 H   0  0  0  0  0  0  0  0  0  0  0  0
    2.1440    1.1270    1.9680 H   0  0  0  0  0  0  0  0  0  0  0  0
    0.1310    4.4010    0.2020 H   0  0  0  0  0  0  0  0  0  0  0  0
   -2.5160    0.7560    2.5370 H   0  0  0  0  0  0  0  0  0  0  0  0
   -0.3290    0.5580   -3.3890 H   0  0  0  0  0  0  0  0  0  0  0  0
   -0.3600   -2.4460   -0.4460 H   0  0  0  0  0  0  0  0  0  0  0  0
    4.1490    2.4640    2.1330 H   0  0  0  0  0  0  0  0  0  0  0  0
    2.1470    5.7210    0.3790 H   0  0  0  0  0  0  0  0  0  0  0  0
   -0.4000   -1.7930   -2.7840 H   0  0  0  0  0  0  0  0  0  0  0  0
    4.1590    4.7590    1.3410 H   0  0  0  0  0  0  0  0  0  0  0  0
   -5.7720    2.4230    2.0140 H   0  0  0  0  0  0  0  0  0  0  0  0
   -3.7770   -0.8320    0.1930 H   0  0  0  0  0  0  0  0  0  0  0  0
   -3.4320    1.3370   -1.6640 H   0  0  0  0  0  0  0  0  0  0  0  0
   -3.3780    4.3250    1.3280 H   0  0  0  0  0  0  0  0  0  0  0  0
   -7.7750    1.0840    2.1850 H   0  0  0  0  0  0  0  0  0  0  0  0
   -5.7910   -2.1530    0.3760 H   0  0  0  0  0  0  0  0  0  0  0  0
   -3.3520    3.0490   -3.3600 H   0  0  0  0  0  0  0  0  0  0  0  0
   -3.2920    6.0220   -0.3860 H   0  0  0  0  0  0  0  0  0  0  0  0
   -7.7930   -1.2030    1.3690 H   0  0  0  0  0  0  0  0  0  0  0  0
   -3.2750    5.3930   -2.7310 H   0  0  0  0  0  0  0  0  0  0  0  0
  1  3  1  0  0  0  0
  1  4  2  0  0  0  0
  1  2  1  0  0  0  0
  2  6  2  0  0  0  0
  2  5  1  0  0  0  0
  3  7  2  0  0  0  0
  3  8  1  0  0  0  0
  4  9  1  0  0  0  0
  4 29  1  0  0  0  0
  5 10  2  0  0  0  0
  5 30  1  0  0  0  0
  6 31  1  0  0  0  0
  6 11  1  0  0  0  0
  7 12  1  0  0  0  0
  7 32  1  0  0  0  0
  8 13  2  0  0  0  0
  8 33  1  0  0  0  0
  9 34  1  0  0  0  0
  9 14  2  0  0  0  0
 10 15  1  0  0  0  0
 10 35  1  0  0  0  0
 11 36  1  0  0  0  0
 11 15  2  0  0  0  0
 12 37  1  0  0  0  0
 12 16  2  0  0  0  0
 13 16  1  0  0  0  0
 13 38  1  0  0  0  0
 14 17  1  0  0  0  0
 14 18  1  0  0  0  0
 15 39  1  0  0  0  0
 16 40  1  0  0  0  0
 17 19  2  0  0  0  0
 17 20  1  0  0  0  0
 18 22  2  0  0  0  0
 18 21  1  0  0  0  0
 19 23  1  0  0  0  0
 19 41  1  0  0  0  0
 20 24  2  0  0  0  0
 20 42  1  0  0  0  0
 21 25  2  0  0  0  0
 21 43  1  0  0  0  0
 22 44  1  0  0  0  0
 22 26  1  0  0  0  0
 23 45  1  0  0  0  0
 23 27  2  0  0  0  0
 24 27  1  0  0  0  0
 24 46  1  0  0  0  0
 25 28  1  0  0  0  0
 25 47  1  0  0  0  0
 26 48  1  0  0  0  0
 26 28  2  0  0  0  0
 27 49  1  0  0  0  0
 28 50  1  0  0  0  0
M  END
