
  ACD/Labs06062115123D

 52 55  0  0  0  0  0  0  0  0  2 V2000
   18.4219   -5.2111   -4.1882 C   0  0  0  0  0  0  0  0  0  0  0  0
   19.7730   -5.2346   -4.2429 N   0  3  0  0  0  0  0  0  0  0  0  0
   17.8673   -6.4677   -4.2872 C   0  0  0  0  0  0  0  0  0  0  0  0
   17.6133   -4.0952   -4.0483 C   0  0  0  0  0  0  0  0  0  0  0  0
   20.2657   -6.4853   -4.3814 C   0  0  0  0  0  0  0  0  0  0  0  0
   20.6141   -4.0315   -4.1625 C   0  0  0  0  0  0  0  0  0  0  0  0
   19.0505   -7.5328   -4.4386 S   0  0  0  0  0  0  0  0  0  0  0  0
   16.5037   -6.6795   -4.2506 C   0  0  0  0  0  0  0  0  0  0  0  0
   16.2364   -4.2849   -4.0103 C   0  0  0  0  0  0  0  0  0  0  0  0
   21.7446   -6.8346   -4.4706 C   0  0  0  0  0  0  0  0  0  0  0  0
   20.9837   -3.7519   -2.7050 C   0  0  0  0  0  0  0  0  0  0  0  0
   15.6871   -5.5629   -4.1099 C   0  0  0  0  0  0  0  0  0  0  0  0
   22.0166   -8.3492   -4.4728 C   0  0  0  0  0  0  0  0  0  0  0  0
   21.4421   -9.0220   -3.2177 C   0  0  0  0  0  0  0  0  0  0  0  0
   21.4776   -8.9973   -5.7550 C   0  0  0  0  0  0  0  0  0  0  0  0
   21.8685  -10.4774   -3.1389 C   0  0  0  0  0  0  0  0  0  0  0  0
   23.1013  -10.9220   -2.8097 N   0  3  0  0  0  0  0  0  0  0  0  0
   20.9106  -11.7309   -3.4306 S   0  0  0  0  0  0  0  0  0  0  0  0
   23.1827  -12.2749   -2.8159 C   0  0  0  0  0  0  0  0  0  0  0  0
   24.2230  -10.0246   -2.4802 C   0  0  0  0  0  0  0  0  0  0  0  0
   21.9912  -12.8739   -3.1570 C   0  0  0  0  0  0  0  0  0  0  0  0
   24.2947  -13.0488   -2.5264 C   0  0  0  0  0  0  0  0  0  0  0  0
   24.6396  -10.2057   -1.0174 C   0  0  0  0  0  0  0  0  0  0  0  0
   21.8395  -14.2450   -3.2268 C   0  0  0  0  0  0  0  0  0  0  0  0
   24.1659  -14.4325   -2.5899 C   0  0  0  0  0  0  0  0  0  0  0  0
   22.9512  -15.0254   -2.9367 C   0  0  0  0  0  0  0  0  0  0  0  0
   18.0556   -3.0791   -3.9689 H   0  0  0  0  0  0  0  0  0  0  0  0
   21.5323   -4.2012   -4.7646 H   0  0  0  0  0  0  0  0  0  0  0  0
   20.0468   -3.1747   -4.5848 H   0  0  0  0  0  0  0  0  0  0  0  0
   16.0818   -7.7041   -4.3309 H   0  0  0  0  0  0  0  0  0  0  0  0
   15.5674   -3.4049   -3.8992 H   0  0  0  0  0  0  0  0  0  0  0  0
   22.1485   -6.3986   -5.4092 H   0  0  0  0  0  0  0  0  0  0  0  0
   22.2619   -6.3809   -3.5983 H   0  0  0  0  0  0  0  0  0  0  0  0
   21.7105   -2.9127   -2.6621 H   0  0  0  0  0  0  0  0  0  0  0  0
   20.0685   -3.4787   -2.1372 H   0  0  0  0  0  0  0  0  0  0  0  0
   21.4409   -4.6608   -2.2584 H   0  0  0  0  0  0  0  0  0  0  0  0
   14.5843   -5.6934   -4.0766 H   0  0  0  0  0  0  0  0  0  0  0  0
   23.1168   -8.5029   -4.4529 H   0  0  0  0  0  0  0  0  0  0  0  0
   21.8101   -8.4905   -2.3142 H   0  0  0  0  0  0  0  0  0  0  0  0
   20.3326   -8.9741   -3.2499 H   0  0  0  0  0  0  0  0  0  0  0  0
   22.3200   -9.1945   -6.4521 H   0  0  0  0  0  0  0  0  0  0  0  0
   20.9743   -9.9550   -5.5021 H   0  0  0  0  0  0  0  0  0  0  0  0
   20.7498   -8.3110   -6.2386 H   0  0  0  0  0  0  0  0  0  0  0  0
   25.0749  -10.2663   -3.1511 H   0  0  0  0  0  0  0  0  0  0  0  0
   23.8980   -8.9769   -2.6563 H   0  0  0  0  0  0  0  0  0  0  0  0
   25.2609  -12.5742   -2.2517 H   0  0  0  0  0  0  0  0  0  0  0  0
   25.1255   -9.2752   -0.6532 H   0  0  0  0  0  0  0  0  0  0  0  0
   23.7407  -10.4198   -0.4004 H   0  0  0  0  0  0  0  0  0  0  0  0
   25.3550  -11.0522   -0.9385 H   0  0  0  0  0  0  0  0  0  0  0  0
   20.8650  -14.7005   -3.5045 H   0  0  0  0  0  0  0  0  0  0  0  0
   25.0446  -15.0724   -2.3605 H   0  0  0  0  0  0  0  0  0  0  0  0
   22.8681  -16.1323   -2.9825 H   0  0  0  0  0  0  0  0  0  0  0  0
  1  2  1  0  0  0  0
  1  3  2  0  0  0  0
  1  4  1  0  0  0  0
  2  6  1  0  0  0  0
  2  5  2  0  0  0  0
  3  7  1  0  0  0  0
  3  8  1  0  0  0  0
  4  9  2  0  0  0  0
  5  7  1  0  0  0  0
  5 10  1  0  0  0  0
  6 11  1  0  0  0  0
  8 12  2  0  0  0  0
  9 12  1  0  0  0  0
 10 13  1  0  0  0  0
 13 15  1  0  0  0  0
 13 14  1  0  0  0  0
 14 16  1  0  0  0  0
 16 17  2  0  0  0  0
 16 18  1  0  0  0  0
 17 20  1  0  0  0  0
 17 19  1  0  0  0  0
 18 21  1  0  0  0  0
 19 21  2  0  0  0  0
 19 22  1  0  0  0  0
 20 23  1  0  0  0  0
 21 24  1  0  0  0  0
 22 25  2  0  0  0  0
 24 26  2  0  0  0  0
 25 26  1  0  0  0  0
 27  4  1  0  0  0  0
 28  6  1  0  0  0  0
 29  6  1  0  0  0  0
 30  8  1  0  0  0  0
 31  9  1  0  0  0  0
 32 10  1  0  0  0  0
 33 10  1  0  0  0  0
 34 11  1  0  0  0  0
 35 11  1  0  0  0  0
 36 11  1  0  0  0  0
 37 12  1  0  0  0  0
 38 13  1  0  0  0  0
 39 14  1  0  0  0  0
 40 14  1  0  0  0  0
 41 15  1  0  0  0  0
 42 15  1  0  0  0  0
 43 15  1  0  0  0  0
 44 20  1  0  0  0  0
 45 20  1  0  0  0  0
 46 22  1  0  0  0  0
 47 23  1  0  0  0  0
 48 23  1  0  0  0  0
 49 23  1  0  0  0  0
 50 24  1  0  0  0  0
 51 25  1  0  0  0  0
 52 26  1  0  0  0  0
M  CHG  2   2   1  17   1
M  END
