decoy-99
 OpenBabel06062114503D

 46 49  0  0  0  0  0  0  0  0999 V2000
    0.0710    1.3140    0.0160 C   0  0  0  0  0  0  0  0  0  0  0  0
    0.2230   -0.1780   -0.2430 C   0  0  0  0  0  0  0  0  0  0  0  0
    1.4840    2.0020    0.1500 C   0  0  0  0  0  0  0  0  0  0  0  0
   -0.6850    1.4940    1.3820 C   0  0  0  0  0  0  0  0  0  0  0  0
   -0.7050    2.1070   -1.1060 C   0  0  0  0  0  0  0  0  0  0  0  0
    1.3870   -0.8830    0.1960 C   0  0  0  0  0  0  0  0  0  0  0  0
   -0.8260   -0.9410   -0.8230 C   0  0  0  0  0  0  0  0  0  0  0  0
    2.2610    1.2820    1.2970 C   0  0  0  0  0  0  0  0  0  0  0  0
    2.2690    2.0680   -1.2030 C   0  0  0  0  0  0  0  0  0  0  0  0
    0.1190    0.9570    2.6000 C   0  0  0  0  0  0  0  0  0  0  0  0
    0.0410    2.1310   -2.4660 C   0  0  0  0  0  0  0  0  0  0  0  0
    2.5040   -0.2140    0.9260 C   0  0  0  0  0  0  0  0  0  0  0  0
    1.5130   -2.2690   -0.0540 C   0  0  0  0  0  0  0  0  0  0  0  0
   -0.7060   -2.3260   -1.0410 C   0  0  0  0  0  0  0  0  0  0  0  0
    1.5510    1.4080    2.6260 *   0  0  0  0  0  0  0  0  0  0  0  0
    1.4460    2.7660   -2.3150 C   0  0  0  0  0  0  0  0  0  0  0  0
    0.4810   -2.9830   -0.6800 C   0  0  0  0  0  0  0  0  0  0  0  0
   -1.7180   -3.0220   -1.6450 O   0  0  0  0  0  0  0  0  0  0  0  0
    1.7240    2.7380    3.2870 C   0  0  0  0  0  0  0  0  0  0  0  0
   -2.6740   -3.5550   -0.7130 C   0  0  0  0  0  0  0  0  0  0  0  0
    1.3430    3.0440    0.4550 H   0  0  0  0  0  0  0  0  0  0  0  0
    3.2500    1.7440    1.3900 H   0  0  0  0  0  0  0  0  0  0  0  0
   -0.8860    2.5540    1.5590 H   0  0  0  0  0  0  0  0  0  0  0  0
   -1.6540    0.9870    1.3450 H   0  0  0  0  0  0  0  0  0  0  0  0
   -1.7100    1.7120   -1.2550 H   0  0  0  0  0  0  0  0  0  0  0  0
   -0.8420    3.1460   -0.7900 H   0  0  0  0  0  0  0  0  0  0  0  0
   -1.7050   -0.5010   -1.0900 H   0  0  0  0  0  0  0  0  0  0  0  0
    3.2020    2.6190   -1.0570 H   0  0  0  0  0  0  0  0  0  0  0  0
    2.5270    1.0670   -1.5530 H   0  0  0  0  0  0  0  0  0  0  0  0
   -0.3990    1.2400    3.5210 H   0  0  0  0  0  0  0  0  0  0  0  0
    0.1060   -0.1350    2.5790 H   0  0  0  0  0  0  0  0  0  0  0  0
    0.1370    1.1140   -2.8550 H   0  0  0  0  0  0  0  0  0  0  0  0
   -0.5390    2.7120   -3.1870 H   0  0  0  0  0  0  0  0  0  0  0  0
    2.7170   -0.7690    1.8440 H   0  0  0  0  0  0  0  0  0  0  0  0
    3.3980   -0.2820    0.3000 H   0  0  0  0  0  0  0  0  0  0  0  0
    2.3570   -2.7740    0.2320 H   0  0  0  0  0  0  0  0  0  0  0  0
    2.0290    0.7540    3.2500 H   0  0  0  0  0  0  0  0  0  0  0  0
    1.3400    3.8280   -2.0740 H   0  0  0  0  0  0  0  0  0  0  0  0
    1.9810    2.6910   -3.2650 H   0  0  0  0  0  0  0  0  0  0  0  0
    0.5860   -3.9860   -0.8520 H   0  0  0  0  0  0  0  0  0  0  0  0
    1.1810    3.5270    2.7650 H   0  0  0  0  0  0  0  0  0  0  0  0
    2.7800    3.0110    3.3330 H   0  0  0  0  0  0  0  0  0  0  0  0
    1.3600    2.6930    4.3150 H   0  0  0  0  0  0  0  0  0  0  0  0
   -2.2050   -4.2600   -0.0220 H   0  0  0  0  0  0  0  0  0  0  0  0
   -3.4380   -4.0890   -1.2770 H   0  0  0  0  0  0  0  0  0  0  0  0
   -3.1630   -2.7590   -0.1450 H   0  0  0  0  0  0  0  0  0  0  0  0
  1  3  1  0  0  0  0
  1  4  1  0  0  0  0
  1  2  1  0  0  0  0
  1  5  1  0  0  0  0
  2  6  2  0  0  0  0
  2  7  1  0  0  0  0
  3 21  1  0  0  0  0
  3  8  1  0  0  0  0
  3  9  1  0  0  0  0
  4 23  1  0  0  0  0
  4 10  1  0  0  0  0
  4 24  1  0  0  0  0
  5 26  1  0  0  0  0
  5 11  1  0  0  0  0
  5 25  1  0  0  0  0
  6 12  1  0  0  0  0
  6 13  1  0  0  0  0
  7 14  2  0  0  0  0
  7 27  1  0  0  0  0
  8 22  1  0  0  0  0
  8 15  1  0  0  0  0
  8 12  1  0  0  0  0
  9 28  1  0  0  0  0
  9 16  1  0  0  0  0
  9 29  1  0  0  0  0
 10 15  1  0  0  0  0
 10 30  1  0  0  0  0
 10 31  1  0  0  0  0
 11 16  1  0  0  0  0
 11 32  1  0  0  0  0
 11 33  1  0  0  0  0
 12 34  1  0  0  0  0
 12 35  1  0  0  0  0
 13 36  1  0  0  0  0
 13 17  2  0  0  0  0
 14 17  1  0  0  0  0
 14 18  1  0  0  0  0
 15 37  1  0  0  0  0
 15 19  1  0  0  0  0
 16 38  1  0  0  0  0
 16 39  1  0  0  0  0
 17 40  1  0  0  0  0
 18 20  1  0  0  0  0
 19 42  1  0  0  0  0
 19 43  1  0  0  0  0
 19 41  1  0  0  0  0
 20 46  1  0  0  0  0
 20 44  1  0  0  0  0
 20 45  1  0  0  0  0
M  END
