decoy-228
 OpenBabel06062114513D

 63 63  0  0  0  0  0  0  0  0999 V2000
    0.1850    1.2650    0.6250 C   0  0  0  0  0  0  0  0  0  0  0  0
   -0.0490    0.3800   -0.4450 C   0  0  0  0  0  0  0  0  0  0  0  0
    1.3940    1.1810    1.3400 C   0  0  0  0  0  0  0  0  0  0  0  0
   -0.7790    2.1590    1.0030 O   0  0  0  0  0  0  0  0  0  0  0  0
    0.9310   -0.5600   -0.8150 C   0  0  0  0  0  0  0  0  0  0  0  0
    2.3740    0.2400    0.9700 C   0  0  0  0  0  0  0  0  0  0  0  0
   -0.6690    3.4350    0.3420 C   0  0  0  0  0  0  0  0  0  0  0  0
    2.1600   -0.6450   -0.1160 C   0  0  0  0  0  0  0  0  0  0  0  0
   -1.8030    4.3580    0.8440 C   0  0  0  0  0  0  0  0  0  0  0  0
    3.1470   -1.5930   -0.4890 C   0  0  0  0  0  0  0  0  0  0  0  0
   -1.7690    5.7630    0.1870 C   0  0  0  0  0  0  0  0  0  0  0  0
    4.3270   -1.6910    0.1660 O   0  0  0  0  0  0  0  0  0  0  0  0
    2.9630   -2.4480   -1.5210 O   0  0  0  0  0  0  0  0  0  0  0  0
   -2.9090    6.6860    0.6940 C   0  0  0  0  0  0  0  0  0  0  0  0
   -2.8760    8.0920    0.0370 C   0  0  0  0  0  0  0  0  0  0  0  0
   -4.0150    9.0150    0.5440 C   0  0  0  0  0  0  0  0  0  0  0  0
   -3.9820   10.4200   -0.1130 C   0  0  0  0  0  0  0  0  0  0  0  0
   -5.1220   11.3430    0.3950 C   0  0  0  0  0  0  0  0  0  0  0  0
   -5.0890   12.7490   -0.2630 C   0  0  0  0  0  0  0  0  0  0  0  0
   -6.2290   13.6720    0.2450 C   0  0  0  0  0  0  0  0  0  0  0  0
   -6.1960   15.0770   -0.4120 C   0  0  0  0  0  0  0  0  0  0  0  0
   -7.3350   16.0000    0.0950 C   0  0  0  0  0  0  0  0  0  0  0  0
   -7.3020   17.4050   -0.5620 C   0  0  0  0  0  0  0  0  0  0  0  0
   -8.4420   18.3280   -0.0550 C   0  0  0  0  0  0  0  0  0  0  0  0
   -8.4080   19.7330   -0.7120 C   0  0  0  0  0  0  0  0  0  0  0  0
   -9.5410   20.6540   -0.2090 C   0  0  0  0  0  0  0  0  0  0  0  0
   -0.9320    0.4210   -0.9580 H   0  0  0  0  0  0  0  0  0  0  0  0
    1.5650    1.8070    2.1300 H   0  0  0  0  0  0  0  0  0  0  0  0
    0.7310   -1.1840   -1.6010 H   0  0  0  0  0  0  0  0  0  0  0  0
    3.2440    0.2100    1.5070 H   0  0  0  0  0  0  0  0  0  0  0  0
    0.2970    3.8990    0.5670 H   0  0  0  0  0  0  0  0  0  0  0  0
   -0.7620    3.3120   -0.7420 H   0  0  0  0  0  0  0  0  0  0  0  0
   -2.7640    3.8830    0.6280 H   0  0  0  0  0  0  0  0  0  0  0  0
   -1.7120    4.4660    1.9290 H   0  0  0  0  0  0  0  0  0  0  0  0
   -0.8060    6.2350    0.4030 H   0  0  0  0  0  0  0  0  0  0  0  0
   -1.8580    5.6510   -0.8980 H   0  0  0  0  0  0  0  0  0  0  0  0
   -3.8720    6.2150    0.4780 H   0  0  0  0  0  0  0  0  0  0  0  0
   -2.8200    6.7980    1.7780 H   0  0  0  0  0  0  0  0  0  0  0  0
   -1.9130    8.5630    0.2530 H   0  0  0  0  0  0  0  0  0  0  0  0
   -2.9650    7.9800   -1.0470 H   0  0  0  0  0  0  0  0  0  0  0  0
   -4.9780    8.5430    0.3280 H   0  0  0  0  0  0  0  0  0  0  0  0
   -3.9270    9.1270    1.6290 H   0  0  0  0  0  0  0  0  0  0  0  0
   -3.0200   10.8920    0.1040 H   0  0  0  0  0  0  0  0  0  0  0  0
   -4.0710   10.3080   -1.1970 H   0  0  0  0  0  0  0  0  0  0  0  0
   -6.0850   10.8720    0.1780 H   0  0  0  0  0  0  0  0  0  0  0  0
   -5.0330   11.4550    1.4790 H   0  0  0  0  0  0  0  0  0  0  0  0
   -4.1260   13.2200   -0.0460 H   0  0  0  0  0  0  0  0  0  0  0  0
   -5.1780   12.6370   -1.3470 H   0  0  0  0  0  0  0  0  0  0  0  0
   -7.1910   13.2000    0.0280 H   0  0  0  0  0  0  0  0  0  0  0  0
   -6.1400   13.7840    1.3290 H   0  0  0  0  0  0  0  0  0  0  0  0
   -5.2330   15.5490   -0.1960 H   0  0  0  0  0  0  0  0  0  0  0  0
   -6.2840   14.9650   -1.4970 H   0  0  0  0  0  0  0  0  0  0  0  0
   -8.2980   15.5290   -0.1210 H   0  0  0  0  0  0  0  0  0  0  0  0
   -7.2460   16.1120    1.1790 H   0  0  0  0  0  0  0  0  0  0  0  0
   -6.3390   17.8770   -0.3460 H   0  0  0  0  0  0  0  0  0  0  0  0
   -7.3910   17.2930   -1.6460 H   0  0  0  0  0  0  0  0  0  0  0  0
   -9.4050   17.8570   -0.2710 H   0  0  0  0  0  0  0  0  0  0  0  0
   -8.3530   18.4410    1.0290 H   0  0  0  0  0  0  0  0  0  0  0  0
   -7.4490   20.2120   -0.4970 H   0  0  0  0  0  0  0  0  0  0  0  0
   -8.5000   19.6290   -1.7970 H   0  0  0  0  0  0  0  0  0  0  0  0
   -9.4720   21.6270   -0.7010 H   0  0  0  0  0  0  0  0  0  0  0  0
  -10.5160   20.2180   -0.4360 H   0  0  0  0  0  0  0  0  0  0  0  0
   -9.4610   20.8030    0.8690 H   0  0  0  0  0  0  0  0  0  0  0  0
  1  4  1  0  0  0  0
  1  3  2  0  0  0  0
  1  2  1  0  0  0  0
  2  5  2  0  0  0  0
  2 27  1  0  0  0  0
  3 28  1  0  0  0  0
  3  6  1  0  0  0  0
  4  7  1  0  0  0  0
  5  8  1  0  0  0  0
  5 29  1  0  0  0  0
  6 30  1  0  0  0  0
  6  8  2  0  0  0  0
  7 31  1  0  0  0  0
  7  9  1  0  0  0  0
  7 32  1  0  0  0  0
  8 10  1  0  0  0  0
  9 34  1  0  0  0  0
  9 11  1  0  0  0  0
  9 33  1  0  0  0  0
 10 12  1  0  0  0  0
 10 13  2  0  0  0  0
 11 35  1  0  0  0  0
 11 14  1  0  0  0  0
 11 36  1  0  0  0  0
 14 38  1  0  0  0  0
 14 15  1  0  0  0  0
 14 37  1  0  0  0  0
 15 39  1  0  0  0  0
 15 16  1  0  0  0  0
 15 40  1  0  0  0  0
 16 42  1  0  0  0  0
 16 17  1  0  0  0  0
 16 41  1  0  0  0  0
 17 43  1  0  0  0  0
 17 18  1  0  0  0  0
 17 44  1  0  0  0  0
 18 46  1  0  0  0  0
 18 19  1  0  0  0  0
 18 45  1  0  0  0  0
 19 47  1  0  0  0  0
 19 20  1  0  0  0  0
 19 48  1  0  0  0  0
 20 50  1  0  0  0  0
 20 21  1  0  0  0  0
 20 49  1  0  0  0  0
 21 51  1  0  0  0  0
 21 22  1  0  0  0  0
 21 52  1  0  0  0  0
 22 54  1  0  0  0  0
 22 23  1  0  0  0  0
 22 53  1  0  0  0  0
 23 55  1  0  0  0  0
 23 24  1  0  0  0  0
 23 56  1  0  0  0  0
 24 58  1  0  0  0  0
 24 25  1  0  0  0  0
 24 57  1  0  0  0  0
 25 59  1  0  0  0  0
 25 26  1  0  0  0  0
 25 60  1  0  0  0  0
 26 63  1  0  0  0  0
 26 61  1  0  0  0  0
 26 62  1  0  0  0  0
M  END
