decoy-973
 OpenBabel06062114513D

 49 50  0  0  0  0  0  0  0  0999 V2000
    3.1690    1.6010    0.2980 C   0  0  0  0  0  0  0  0  0  0  0  0
    4.4930    1.2080   -0.0130 C   0  0  0  0  0  0  0  0  0  0  0  0
    2.9790    2.5710    1.3090 C   0  0  0  0  0  0  0  0  0  0  0  0
    2.0040    1.0080   -0.4220 C   0  0  0  0  0  0  0  0  0  0  0  0
    5.6070    1.7610    0.6640 C   0  0  0  0  0  0  0  0  0  0  0  0
    4.0750    3.1300    1.9880 C   0  0  0  0  0  0  0  0  0  0  0  0
    1.1030    0.1490    0.5040 C   0  0  0  0  0  0  0  0  0  0  0  0
    1.2410    2.0430   -1.0420 O   0  0  0  0  0  0  0  0  0  0  0  0
    5.3870    2.7340    1.6710 C   0  0  0  0  0  0  0  0  0  0  0  0
    6.8790    1.3370    0.3350 C   0  0  0  0  0  0  0  0  0  0  0  0
    0.0240   -0.4970   -0.2810 C   0  0  0  0  0  0  0  0  0  0  0  0
    6.4030    3.3260    2.3550 O   0  0  0  0  0  0  0  0  0  0  0  0
    7.6370    0.7230    1.2160 N   0  0  0  0  0  0  0  0  0  0  0  0
    7.3130    1.5050   -0.7950 O   0  0  0  0  0  0  0  0  0  0  0  0
   -0.9860   -1.2980    0.4640 C   0  0  0  0  0  0  0  0  0  0  0  0
   -2.2510   -1.4210   -0.4400 C   0  0  0  0  0  0  0  0  0  0  0  0
   -0.4050   -2.6790    0.8730 C   0  0  0  0  0  0  0  0  0  0  0  0
   -3.4960   -2.0480    0.2490 C   0  0  0  0  0  0  0  0  0  0  0  0
   -4.7150   -1.9850   -0.6040 C   0  0  0  0  0  0  0  0  0  0  0  0
   -4.8110   -2.7780   -1.7730 C   0  0  0  0  0  0  0  0  0  0  0  0
   -5.8030   -1.1450   -0.2660 C   0  0  0  0  0  0  0  0  0  0  0  0
   -5.9590   -2.7270   -2.5850 C   0  0  0  0  0  0  0  0  0  0  0  0
   -6.9510   -1.0930   -1.0780 C   0  0  0  0  0  0  0  0  0  0  0  0
   -7.0300   -1.8840   -2.2380 C   0  0  0  0  0  0  0  0  0  0  0  0
    4.6480    0.5020   -0.7380 H   0  0  0  0  0  0  0  0  0  0  0  0
    2.0370    2.8820    1.5580 H   0  0  0  0  0  0  0  0  0  0  0  0
    2.3540    0.3610   -1.2310 H   0  0  0  0  0  0  0  0  0  0  0  0
    3.9130    3.8330    2.7130 H   0  0  0  0  0  0  0  0  0  0  0  0
    1.7180   -0.6150    0.9850 H   0  0  0  0  0  0  0  0  0  0  0  0
    0.6590    0.7800    1.2780 H   0  0  0  0  0  0  0  0  0  0  0  0
    0.8880    2.5850   -0.3050 H   0  0  0  0  0  0  0  0  0  0  0  0
   -0.4740    0.2500   -0.7700 H   0  0  0  0  0  0  0  0  0  0  0  0
    0.4540   -1.1000   -0.9860 H   0  0  0  0  0  0  0  0  0  0  0  0
    7.2270    3.0830    1.8870 H   0  0  0  0  0  0  0  0  0  0  0  0
    8.5260    0.4230    0.9670 H   0  0  0  0  0  0  0  0  0  0  0  0
    7.3110    0.5680    2.1160 H   0  0  0  0  0  0  0  0  0  0  0  0
   -1.2730   -0.7560    1.3710 H   0  0  0  0  0  0  0  0  0  0  0  0
   -2.5290   -0.4160   -0.7730 H   0  0  0  0  0  0  0  0  0  0  0  0
   -1.9960   -2.0030   -1.3300 H   0  0  0  0  0  0  0  0  0  0  0  0
   -0.1220   -3.2510   -0.0130 H   0  0  0  0  0  0  0  0  0  0  0  0
   -1.1360   -3.2530    1.4430 H   0  0  0  0  0  0  0  0  0  0  0  0
    0.4750   -2.5560    1.5040 H   0  0  0  0  0  0  0  0  0  0  0  0
   -3.3040   -3.0950    0.4910 H   0  0  0  0  0  0  0  0  0  0  0  0
   -3.6670   -1.5260    1.1950 H   0  0  0  0  0  0  0  0  0  0  0  0
   -4.0450   -3.4020   -2.0380 H   0  0  0  0  0  0  0  0  0  0  0  0
   -5.7660   -0.5590    0.5720 H   0  0  0  0  0  0  0  0  0  0  0  0
   -6.0170   -3.3050   -3.4270 H   0  0  0  0  0  0  0  0  0  0  0  0
   -7.7300   -0.4810   -0.8250 H   0  0  0  0  0  0  0  0  0  0  0  0
   -7.8640   -1.8470   -2.8280 H   0  0  0  0  0  0  0  0  0  0  0  0
  1  3  2  0  0  0  0
  1  2  1  0  0  0  0
  1  4  1  0  0  0  0
  2  5  2  0  0  0  0
  2 25  1  0  0  0  0
  3 26  1  0  0  0  0
  3  6  1  0  0  0  0
  4 27  1  0  0  0  0
  4  7  1  0  0  0  0
  4  8  1  0  0  0  0
  5  9  1  0  0  0  0
  5 10  1  0  0  0  0
  6 28  1  0  0  0  0
  6  9  2  0  0  0  0
  7 29  1  0  0  0  0
  7 30  1  0  0  0  0
  7 11  1  0  0  0  0
  8 31  1  0  0  0  0
  9 12  1  0  0  0  0
 10 13  1  0  0  0  0
 10 14  2  0  0  0  0
 11 15  1  0  0  0  0
 11 32  1  0  0  0  0
 11 33  1  0  0  0  0
 12 34  1  0  0  0  0
 13 36  1  0  0  0  0
 13 35  1  0  0  0  0
 15 17  1  0  0  0  0
 15 37  1  0  0  0  0
 15 16  1  0  0  0  0
 16 18  1  0  0  0  0
 16 38  1  0  0  0  0
 16 39  1  0  0  0  0
 17 41  1  0  0  0  0
 17 42  1  0  0  0  0
 17 40  1  0  0  0  0
 18 43  1  0  0  0  0
 18 44  1  0  0  0  0
 18 19  1  0  0  0  0
 19 21  2  0  0  0  0
 19 20  1  0  0  0  0
 20 22  2  0  0  0  0
 20 45  1  0  0  0  0
 21 46  1  0  0  0  0
 21 23  1  0  0  0  0
 22 24  1  0  0  0  0
 22 47  1  0  0  0  0
 23 48  1  0  0  0  0
 23 24  2  0  0  0  0
 24 49  1  0  0  0  0
M  END
