decoy-521
 OpenBabel06062114513D

 49 52  0  0  0  0  0  0  0  0999 V2000
   -0.0870   -0.5690   -0.9400 C   0  0  0  0  0  0  0  0  0  0  0  0
    0.2010    0.7100   -0.0520 C   0  0  0  0  0  0  0  0  0  0  0  0
   -1.4560   -1.2000   -0.5280 C   0  0  0  0  0  0  0  0  0  0  0  0
    1.0820   -1.5920   -0.8350 C   0  0  0  0  0  0  0  0  0  0  0  0
    1.6320    1.3510   -0.3500 C   0  0  0  0  0  0  0  0  0  0  0  0
   -1.0250    1.6970   -0.0760 C   0  0  0  0  0  0  0  0  0  0  0  0
   -2.6550   -0.2190   -0.7270 C   0  0  0  0  0  0  0  0  0  0  0  0
   -1.9430   -2.5170   -1.1700 C   0  0  0  0  0  0  0  0  0  0  0  0
    2.4540   -0.9340   -1.1240 C   0  0  0  0  0  0  0  0  0  0  0  0
    2.6330    0.2360   -0.2530 C   0  0  0  0  0  0  0  0  0  0  0  0
    2.0090    2.5130    0.6630 C   0  0  0  0  0  0  0  0  0  0  0  0
    1.6890    2.0100   -1.7770 C   0  0  0  0  0  0  0  0  0  0  0  0
   -2.4020    1.0160    0.1980 C   0  0  0  0  0  0  0  0  0  0  0  0
   -3.8280   -1.1510   -0.2860 C   0  0  0  0  0  0  0  0  0  0  0  0
   -2.9040    0.2680   -2.2050 C   0  0  0  0  0  0  0  0  0  0  0  0
   -3.4650   -2.5450   -0.8700 C   0  0  0  0  0  0  0  0  0  0  0  0
    3.5630    0.1710    0.7310 C   0  0  0  0  0  0  0  0  0  0  0  0
    2.5450    1.9800    2.0130 C   0  0  0  0  0  0  0  0  0  0  0  0
   -5.1260   -0.7200   -0.6940 O   0  0  0  0  0  0  0  0  0  0  0  0
    3.6470    1.0760    1.7390 C   0  0  0  0  0  0  0  0  0  0  0  0
    4.6790    1.1650    2.3910 O   0  0  0  0  0  0  0  0  0  0  0  0
   -0.1530   -0.2840   -1.9900 H   0  0  0  0  0  0  0  0  0  0  0  0
    0.2460    0.3520    0.9830 H   0  0  0  0  0  0  0  0  0  0  0  0
   -1.3600   -1.4260    0.5440 H   0  0  0  0  0  0  0  0  0  0  0  0
    1.1020   -2.0300    0.1680 H   0  0  0  0  0  0  0  0  0  0  0  0
    0.9290   -2.4050   -1.5500 H   0  0  0  0  0  0  0  0  0  0  0  0
   -0.9070    2.4610    0.6920 H   0  0  0  0  0  0  0  0  0  0  0  0
   -1.0670    2.2120   -1.0350 H   0  0  0  0  0  0  0  0  0  0  0  0
   -1.7580   -2.5110   -2.2470 H   0  0  0  0  0  0  0  0  0  0  0  0
   -1.4380   -3.3830   -0.7340 H   0  0  0  0  0  0  0  0  0  0  0  0
    3.2270   -1.6960   -0.9840 H   0  0  0  0  0  0  0  0  0  0  0  0
    2.5110   -0.6350   -2.1730 H   0  0  0  0  0  0  0  0  0  0  0  0
    2.8070    3.1370    0.2420 H   0  0  0  0  0  0  0  0  0  0  0  0
    1.1750    3.1870    0.8490 H   0  0  0  0  0  0  0  0  0  0  0  0
    1.3220    1.3530   -2.5630 H   0  0  0  0  0  0  0  0  0  0  0  0
    2.7170    2.2810   -2.0330 H   0  0  0  0  0  0  0  0  0  0  0  0
    1.0900    2.9220   -1.8110 H   0  0  0  0  0  0  0  0  0  0  0  0
   -2.4240    0.7040    1.2470 H   0  0  0  0  0  0  0  0  0  0  0  0
   -3.2020    1.7500    0.0680 H   0  0  0  0  0  0  0  0  0  0  0  0
   -3.8510   -1.2280    0.8070 H   0  0  0  0  0  0  0  0  0  0  0  0
   -2.0570    0.8180   -2.6110 H   0  0  0  0  0  0  0  0  0  0  0  0
   -3.7680    0.9330   -2.2420 H   0  0  0  0  0  0  0  0  0  0  0  0
   -3.1020   -0.5660   -2.8800 H   0  0  0  0  0  0  0  0  0  0  0  0
   -4.0230   -2.7390   -1.7900 H   0  0  0  0  0  0  0  0  0  0  0  0
   -3.7060   -3.3320   -0.1500 H   0  0  0  0  0  0  0  0  0  0  0  0
    4.2000   -0.5940    0.7560 H   0  0  0  0  0  0  0  0  0  0  0  0
    2.8630    2.8160    2.6430 H   0  0  0  0  0  0  0  0  0  0  0  0
    1.7570    1.4390    2.5420 H   0  0  0  0  0  0  0  0  0  0  0  0
   -5.2500    0.1510   -0.2610 H   0  0  0  0  0  0  0  0  0  0  0  0
  1  4  1  0  0  0  0
  1  3  1  0  0  0  0
  1  2  1  0  0  0  0
  1 22  1  0  0  0  0
  2 23  1  0  0  0  0
  2  5  1  0  0  0  0
  2  6  1  0  0  0  0
  3  7  1  0  0  0  0
  3 24  1  0  0  0  0
  3  8  1  0  0  0  0
  4 25  1  0  0  0  0
  4  9  1  0  0  0  0
  4 26  1  0  0  0  0
  5 10  1  0  0  0  0
  5 11  1  0  0  0  0
  5 12  1  0  0  0  0
  6 13  1  0  0  0  0
  6 27  1  0  0  0  0
  6 28  1  0  0  0  0
  7 14  1  0  0  0  0
  7 13  1  0  0  0  0
  7 15  1  0  0  0  0
  8 16  1  0  0  0  0
  8 30  1  0  0  0  0
  8 29  1  0  0  0  0
  9 31  1  0  0  0  0
  9 10  1  0  0  0  0
  9 32  1  0  0  0  0
 10 17  2  0  0  0  0
 11 34  1  0  0  0  0
 11 18  1  0  0  0  0
 11 33  1  0  0  0  0
 12 35  1  0  0  0  0
 12 36  1  0  0  0  0
 12 37  1  0  0  0  0
 13 38  1  0  0  0  0
 13 39  1  0  0  0  0
 14 40  1  0  0  0  0
 14 16  1  0  0  0  0
 14 19  1  0  0  0  0
 15 41  1  0  0  0  0
 15 42  1  0  0  0  0
 15 43  1  0  0  0  0
 16 45  1  0  0  0  0
 16 44  1  0  0  0  0
 17 46  1  0  0  0  0
 17 20  1  0  0  0  0
 18 48  1  0  0  0  0
 18 47  1  0  0  0  0
 18 20  1  0  0  0  0
 19 49  1  0  0  0  0
 20 21  2  0  0  0  0
M  END
