decoy-217
 OpenBabel06062114513D

 82 86  0  0  0  0  0  0  0  0999 V2000
    1.8830    1.7320   -1.1980 C   0  0  0  0  0  0  0  0  0  0  0  0
    1.3660    0.2760   -0.9020 C   0  0  0  0  0  0  0  0  0  0  0  0
    3.4230    1.7410   -1.5020 C   0  0  0  0  0  0  0  0  0  0  0  0
    1.6910    2.9070   -0.1870 C   0  0  0  0  0  0  0  0  0  0  0  0
    1.6230   -0.7560   -2.0990 C   0  0  0  0  0  0  0  0  0  0  0  0
   -0.1060    0.2110   -0.4010 C   0  0  0  0  0  0  0  0  0  0  0  0
    3.6610    0.8580   -2.7740 C   0  0  0  0  0  0  0  0  0  0  0  0
    3.6410    3.2680   -1.7140 C   0  0  0  0  0  0  0  0  0  0  0  0
    4.3740    1.2670   -0.3290 C   0  0  0  0  0  0  0  0  0  0  0  0
    2.7730    3.9490   -0.6250 C   0  0  0  0  0  0  0  0  0  0  0  0
    0.3400    3.5070   -0.0610 C   0  0  0  0  0  0  0  0  0  0  0  0
    1.2510   -2.2650   -1.5830 C   0  0  0  0  0  0  0  0  0  0  0  0
    3.1320   -0.6010   -2.5830 C   0  0  0  0  0  0  0  0  0  0  0  0
    0.7750   -0.3270   -3.3790 C   0  0  0  0  0  0  0  0  0  0  0  0
   -0.5220   -1.2200    0.0270 C   0  0  0  0  0  0  0  0  0  0  0  0
    5.7510    1.3620   -0.6870 O   0  0  0  0  0  0  0  0  0  0  0  0
   -0.4200    3.9090   -1.2490 C   0  0  0  0  0  0  0  0  0  0  0  0
   -0.1910    3.7200    1.1590 C   0  0  0  0  0  0  0  0  0  0  0  0
   -0.2670   -2.3200   -1.0660 C   0  0  0  0  0  0  0  0  0  0  0  0
    1.3980   -3.3320   -2.7380 C   0  0  0  0  0  0  0  0  0  0  0  0
    2.2430   -2.7520   -0.4450 C   0  0  0  0  0  0  0  0  0  0  0  0
   -0.9450   -3.7570   -0.7870 C   0  0  0  0  0  0  0  0  0  0  0  0
    0.7970   -4.7380   -2.4600 C   0  0  0  0  0  0  0  0  0  0  0  0
   -0.7230   -4.6590   -2.0870 C   0  0  0  0  0  0  0  0  0  0  0  0
   -2.5110   -3.5780   -0.6330 C   0  0  0  0  0  0  0  0  0  0  0  0
   -0.4160   -4.4180    0.5480 C   0  0  0  0  0  0  0  0  0  0  0  0
   -1.5350   -6.0300   -2.1900 C   0  0  0  0  0  0  0  0  0  0  0  0
   -3.3540   -4.8800   -0.6890 C   0  0  0  0  0  0  0  0  0  0  0  0
   -3.0640   -5.7160   -1.9570 C   0  0  0  0  0  0  0  0  0  0  0  0
   -1.4130   -6.6400   -3.6380 C   0  0  0  0  0  0  0  0  0  0  0  0
   -1.0360   -7.1430   -1.2050 C   0  0  0  0  0  0  0  0  0  0  0  0
   -3.8720   -6.8940   -1.8770 O   0  0  0  0  0  0  0  0  0  0  0  0
    1.3650    2.0620   -2.0970 H   0  0  0  0  0  0  0  0  0  0  0  0
    1.9480   -0.0330   -0.0390 H   0  0  0  0  0  0  0  0  0  0  0  0
   -0.8550   -1.9620   -1.9070 H   0  0  0  0  0  0  0  0  0  0  0  0
   -1.1530   -4.0690   -2.9070 H   0  0  0  0  0  0  0  0  0  0  0  0
    1.9980    2.5090    0.7870 H   0  0  0  0  0  0  0  0  0  0  0  0
   -0.2230    0.8530    0.4740 H   0  0  0  0  0  0  0  0  0  0  0  0
   -0.7890    0.5800   -1.1680 H   0  0  0  0  0  0  0  0  0  0  0  0
    3.1780    1.3090   -3.6430 H   0  0  0  0  0  0  0  0  0  0  0  0
    4.7290    0.8240   -3.0100 H   0  0  0  0  0  0  0  0  0  0  0  0
    4.6890    3.5680   -1.6370 H   0  0  0  0  0  0  0  0  0  0  0  0
    3.2810    3.5720   -2.7020 H   0  0  0  0  0  0  0  0  0  0  0  0
    4.2390    1.8690    0.5690 H   0  0  0  0  0  0  0  0  0  0  0  0
    4.1920    0.2330   -0.0430 H   0  0  0  0  0  0  0  0  0  0  0  0
    2.3480    4.8740   -1.0230 H   0  0  0  0  0  0  0  0  0  0  0  0
    3.3960    4.2220    0.2330 H   0  0  0  0  0  0  0  0  0  0  0  0
    3.8160   -1.0620   -1.8820 H   0  0  0  0  0  0  0  0  0  0  0  0
    3.2820   -1.1370   -3.5240 H   0  0  0  0  0  0  0  0  0  0  0  0
   -0.2980   -0.3810   -3.2340 H   0  0  0  0  0  0  0  0  0  0  0  0
    0.9690    0.6900   -3.7010 H   0  0  0  0  0  0  0  0  0  0  0  0
    1.0150   -0.9320   -4.2510 H   0  0  0  0  0  0  0  0  0  0  0  0
    0.0070   -1.4610    0.9490 H   0  0  0  0  0  0  0  0  0  0  0  0
   -1.5820   -1.1660    0.2760 H   0  0  0  0  0  0  0  0  0  0  0  0
    6.2390    1.0560    0.1060 H   0  0  0  0  0  0  0  0  0  0  0  0
   -1.3100    4.4980   -1.0100 H   0  0  0  0  0  0  0  0  0  0  0  0
    0.1950    4.5130   -1.9160 H   0  0  0  0  0  0  0  0  0  0  0  0
   -0.7550    3.0260   -1.7920 H   0  0  0  0  0  0  0  0  0  0  0  0
    0.3020    3.4810    1.9860 H   0  0  0  0  0  0  0  0  0  0  0  0
   -1.0930    4.1200    1.2700 H   0  0  0  0  0  0  0  0  0  0  0  0
    0.8900   -2.9920   -3.6360 H   0  0  0  0  0  0  0  0  0  0  0  0
    2.4500   -3.4540   -3.0070 H   0  0  0  0  0  0  0  0  0  0  0  0
    2.2160   -2.1320    0.4460 H   0  0  0  0  0  0  0  0  0  0  0  0
    2.0330   -3.7570   -0.1110 H   0  0  0  0  0  0  0  0  0  0  0  0
    3.2730   -2.8030   -0.7840 H   0  0  0  0  0  0  0  0  0  0  0  0
    0.9350   -5.3080   -3.3790 H   0  0  0  0  0  0  0  0  0  0  0  0
    1.3690   -5.2590   -1.6950 H   0  0  0  0  0  0  0  0  0  0  0  0
   -2.7450   -3.0970    0.3200 H   0  0  0  0  0  0  0  0  0  0  0  0
   -2.8910   -2.9210   -1.4210 H   0  0  0  0  0  0  0  0  0  0  0  0
    0.3610   -5.1540    0.3630 H   0  0  0  0  0  0  0  0  0  0  0  0
   -0.0120   -3.6840    1.2380 H   0  0  0  0  0  0  0  0  0  0  0  0
   -1.1920   -4.9370    1.1070 H   0  0  0  0  0  0  0  0  0  0  0  0
   -3.1880   -5.4870    0.2020 H   0  0  0  0  0  0  0  0  0  0  0  0
   -4.4140   -4.6040   -0.6850 H   0  0  0  0  0  0  0  0  0  0  0  0
   -3.4420   -5.1390   -2.8070 H   0  0  0  0  0  0  0  0  0  0  0  0
   -0.4150   -7.0360   -3.8280 H   0  0  0  0  0  0  0  0  0  0  0  0
   -2.1050   -7.4720   -3.7820 H   0  0  0  0  0  0  0  0  0  0  0  0
   -1.6340   -5.8910   -4.4010 H   0  0  0  0  0  0  0  0  0  0  0  0
   -1.2700   -6.9100   -0.1710 H   0  0  0  0  0  0  0  0  0  0  0  0
   -1.5110   -8.1010   -1.4250 H   0  0  0  0  0  0  0  0  0  0  0  0
    0.0430   -7.2830   -1.2900 H   0  0  0  0  0  0  0  0  0  0  0  0
   -3.8230   -7.3100   -2.7620 H   0  0  0  0  0  0  0  0  0  0  0  0
  1  3  1  0  0  0  0
  1  2  1  0  0  0  0
  1  4  1  0  0  0  0
  1 33  1  0  0  0  0
  2  5  1  0  0  0  0
  2  6  1  0  0  0  0
  2 34  1  0  0  0  0
  3  9  1  0  0  0  0
  3  7  1  0  0  0  0
  3  8  1  0  0  0  0
  4 11  1  0  0  0  0
  4 37  1  0  0  0  0
  4 10  1  0  0  0  0
  5 12  1  0  0  0  0
  5 13  1  0  0  0  0
  5 14  1  0  0  0  0
  6 15  1  0  0  0  0
  6 38  1  0  0  0  0
  6 39  1  0  0  0  0
  7 13  1  0  0  0  0
  7 40  1  0  0  0  0
  7 41  1  0  0  0  0
  8 42  1  0  0  0  0
  8 10  1  0  0  0  0
  8 43  1  0  0  0  0
  9 45  1  0  0  0  0
  9 44  1  0  0  0  0
  9 16  1  0  0  0  0
 10 47  1  0  0  0  0
 10 46  1  0  0  0  0
 11 18  2  0  0  0  0
 11 17  1  0  0  0  0
 12 19  1  0  0  0  0
 12 21  1  0  0  0  0
 12 20  1  0  0  0  0
 13 48  1  0  0  0  0
 13 49  1  0  0  0  0
 14 50  1  0  0  0  0
 14 51  1  0  0  0  0
 14 52  1  0  0  0  0
 15 54  1  0  0  0  0
 15 53  1  0  0  0  0
 15 19  1  0  0  0  0
 16 55  1  0  0  0  0
 17 56  1  0  0  0  0
 17 57  1  0  0  0  0
 17 58  1  0  0  0  0
 18 60  1  0  0  0  0
 18 59  1  0  0  0  0
 19 22  1  0  0  0  0
 19 35  1  0  0  0  0
 20 23  1  0  0  0  0
 20 61  1  0  0  0  0
 20 62  1  0  0  0  0
 21 64  1  0  0  0  0
 21 63  1  0  0  0  0
 21 65  1  0  0  0  0
 22 24  1  0  0  0  0
 22 25  1  0  0  0  0
 22 26  1  0  0  0  0
 23 24  1  0  0  0  0
 23 67  1  0  0  0  0
 23 66  1  0  0  0  0
 24 36  1  0  0  0  0
 24 27  1  0  0  0  0
 25 68  1  0  0  0  0
 25 28  1  0  0  0  0
 25 69  1  0  0  0  0
 26 72  1  0  0  0  0
 26 71  1  0  0  0  0
 26 70  1  0  0  0  0
 27 29  1  0  0  0  0
 27 31  1  0  0  0  0
 27 30  1  0  0  0  0
 28 74  1  0  0  0  0
 28 73  1  0  0  0  0
 28 29  1  0  0  0  0
 29 75  1  0  0  0  0
 29 32  1  0  0  0  0
 30 76  1  0  0  0  0
 30 77  1  0  0  0  0
 30 78  1  0  0  0  0
 31 79  1  0  0  0  0
 31 80  1  0  0  0  0
 31 81  1  0  0  0  0
 32 82  1  0  0  0  0
M  END
