decoy-985
 OpenBabel06062114513D

 20 20  0  0  0  0  0  0  0  0999 V2000
   -0.0570    1.3800    0.0010 C   0  0  0  0  0  0  0  0  0  0  0  0
   -0.0090   -0.0300   -0.0310 C   0  0  0  0  0  0  0  0  0  0  0  0
    1.1480    2.1150    0.1160 C   0  0  0  0  0  0  0  0  0  0  0  0
   -1.6010    2.1850   -0.1050 S   0  0  0  0  0  0  0  0  0  0  0  0
    1.2210   -0.7120    0.0490 C   0  0  0  0  0  0  0  0  0  0  0  0
    2.3830    1.4330    0.1870 C   0  0  0  0  0  0  0  0  0  0  0  0
    1.1650    3.4740    0.1560 O   0  0  0  0  0  0  0  0  0  0  0  0
   -1.8770    3.0570    1.3170 O   0  0  0  0  0  0  0  0  0  0  0  0
   -1.5810    3.2840   -1.3890 O   0  0  0  0  0  0  0  0  0  0  0  0
   -2.8920    1.1170   -0.3370 O   0  0  0  0  0  0  0  0  0  0  0  0
    2.4160    0.0270    0.1510 C   0  0  0  0  0  0  0  0  0  0  0  0
    1.2600   -2.4510   -0.0050 S   0  0  0  0  0  0  0  0  0  0  0  0
    3.5620    2.1010    0.2900 O   0  0  0  0  0  0  0  0  0  0  0  0
    1.1920   -2.9500   -1.6180 O   0  0  0  0  0  0  0  0  0  0  0  0
    2.6720   -3.0690    0.6910 O   0  0  0  0  0  0  0  0  0  0  0  0
   -0.0740   -3.1020    0.8040 O   0  0  0  0  0  0  0  0  0  0  0  0
   -0.8740   -0.5680   -0.1160 H   0  0  0  0  0  0  0  0  0  0  0  0
    0.2360    3.7630    0.2560 H   0  0  0  0  0  0  0  0  0  0  0  0
    3.3160   -0.4550    0.1990 H   0  0  0  0  0  0  0  0  0  0  0  0
    3.3370    3.0540    0.2980 H   0  0  0  0  0  0  0  0  0  0  0  0
  1  3  2  0  0  0  0
  1  2  1  0  0  0  0
  1  4  1  0  0  0  0
  2  5  2  0  0  0  0
  2 17  1  0  0  0  0
  3  7  1  0  0  0  0
  3  6  1  0  0  0  0
  4  8  2  0  0  0  0
  4  9  2  0  0  0  0
  4 10  1  0  0  0  0
  5 11  1  0  0  0  0
  5 12  1  0  0  0  0
  6 13  1  0  0  0  0
  6 11  2  0  0  0  0
  7 18  1  0  0  0  0
 11 19  1  0  0  0  0
 12 15  2  0  0  0  0
 12 16  1  0  0  0  0
 12 14  2  0  0  0  0
 13 20  1  0  0  0  0
M  END
