decoy-200
 OpenBabel06062114503D

 65 67  0  0  0  0  0  0  0  0999 V2000
    2.6020    3.0360   -0.6160 N   0  0  0  0  0  0  0  0  0  0  0  0
    3.6790    3.6220    0.1570 C   0  0  0  0  0  0  0  0  0  0  0  0
    3.0690    1.8900   -1.3750 C   0  0  0  0  0  0  0  0  0  0  0  0
    1.4050    3.6320   -0.7940 C   0  0  0  0  0  0  0  0  0  0  0  0
    4.7610    2.5150    0.1940 C   0  0  0  0  0  0  0  0  0  0  0  0
    3.4750    4.1190    1.6240 C   0  0  0  0  0  0  0  0  0  0  0  0
    4.6080    1.8670   -1.1840 C   0  0  0  0  0  0  0  0  0  0  0  0
    2.4380    0.6190   -0.9420 C   0  0  0  0  0  0  0  0  0  0  0  0
    0.2910    3.1330   -1.6110 C   0  0  0  0  0  0  0  0  0  0  0  0
    1.1940    4.7130   -0.2550 O   0  0  0  0  0  0  0  0  0  0  0  0
    6.1360    3.0910    0.6190 C   0  0  0  0  0  0  0  0  0  0  0  0
    4.8150    4.6770    2.1940 C   0  0  0  0  0  0  0  0  0  0  0  0
    1.9370   -0.2420   -1.8560 O   0  0  0  0  0  0  0  0  0  0  0  0
    2.3620    0.2770    0.3640 O   0  0  0  0  0  0  0  0  0  0  0  0
   -0.9070    2.9970   -0.7370 *   0  0  0  0  0  0  0  0  0  0  0  0
    0.0110    4.0770   -2.8120 C   0  0  0  0  0  0  0  0  0  0  0  0
    6.0130    3.6920    2.0490 C   0  0  0  0  0  0  0  0  0  0  0  0
   -1.9880    2.0570   -1.1380 C   0  0  0  0  0  0  0  0  0  0  0  0
   -1.6480    0.5940   -0.7230 C   0  0  0  0  0  0  0  0  0  0  0  0
   -3.2380    2.5270   -0.5030 C   0  0  0  0  0  0  0  0  0  0  0  0
   -2.7010   -0.4570   -1.1770 C   0  0  0  0  0  0  0  0  0  0  0  0
   -4.2970    2.8690   -1.2850 O   0  0  0  0  0  0  0  0  0  0  0  0
   -3.3210    2.6090    0.8470 O   0  0  0  0  0  0  0  0  0  0  0  0
   -2.2900   -1.8490   -0.8450 C   0  0  0  0  0  0  0  0  0  0  0  0
   -5.5700    3.3330   -0.8250 C   0  0  0  0  0  0  0  0  0  0  0  0
   -2.2740   -2.2880    0.5000 C   0  0  0  0  0  0  0  0  0  0  0  0
   -1.9110   -2.7610   -1.8600 C   0  0  0  0  0  0  0  0  0  0  0  0
   -6.4890    3.6070   -2.0290 C   0  0  0  0  0  0  0  0  0  0  0  0
   -1.8830   -3.6010    0.8240 C   0  0  0  0  0  0  0  0  0  0  0  0
   -1.5200   -4.0730   -1.5360 C   0  0  0  0  0  0  0  0  0  0  0  0
   -1.5050   -4.4940   -0.1950 C   0  0  0  0  0  0  0  0  0  0  0  0
    4.0430    4.4750   -0.4300 H   0  0  0  0  0  0  0  0  0  0  0  0
    2.8800    2.0400   -2.4440 H   0  0  0  0  0  0  0  0  0  0  0  0
    4.4900    1.7500    0.9340 H   0  0  0  0  0  0  0  0  0  0  0  0
    0.5270    2.1590   -2.0320 H   0  0  0  0  0  0  0  0  0  0  0  0
   -2.1190    2.0910   -2.2230 H   0  0  0  0  0  0  0  0  0  0  0  0
    2.7360    4.9200    1.6630 H   0  0  0  0  0  0  0  0  0  0  0  0
    3.1130    3.3010    2.2520 H   0  0  0  0  0  0  0  0  0  0  0  0
    5.0360    0.8610   -1.2140 H   0  0  0  0  0  0  0  0  0  0  0  0
    5.0990    2.4830   -1.9450 H   0  0  0  0  0  0  0  0  0  0  0  0
    6.8860    2.2960    0.6180 H   0  0  0  0  0  0  0  0  0  0  0  0
    6.4580    3.8640   -0.0840 H   0  0  0  0  0  0  0  0  0  0  0  0
    5.0610    5.6050    1.6690 H   0  0  0  0  0  0  0  0  0  0  0  0
    4.6790    4.9230    3.2510 H   0  0  0  0  0  0  0  0  0  0  0  0
   -0.5890    2.7100    0.1920 H   0  0  0  0  0  0  0  0  0  0  0  0
   -1.3180    3.9300   -0.6450 H   0  0  0  0  0  0  0  0  0  0  0  0
   -0.3300    5.0560   -2.4680 H   0  0  0  0  0  0  0  0  0  0  0  0
   -0.7580    3.6540   -3.4600 H   0  0  0  0  0  0  0  0  0  0  0  0
    0.9180    4.2110   -3.4080 H   0  0  0  0  0  0  0  0  0  0  0  0
    5.8850    2.8770    2.7670 H   0  0  0  0  0  0  0  0  0  0  0  0
    6.9400    4.2120    2.3020 H   0  0  0  0  0  0  0  0  0  0  0  0
   -0.6920    0.3180   -1.1700 H   0  0  0  0  0  0  0  0  0  0  0  0
   -1.5260    0.5470    0.3630 H   0  0  0  0  0  0  0  0  0  0  0  0
   -3.6620   -0.2530   -0.6980 H   0  0  0  0  0  0  0  0  0  0  0  0
   -2.8510   -0.3510   -2.2550 H   0  0  0  0  0  0  0  0  0  0  0  0
   -6.0280    2.5760   -0.1840 H   0  0  0  0  0  0  0  0  0  0  0  0
   -5.4410    4.2540   -0.2510 H   0  0  0  0  0  0  0  0  0  0  0  0
   -2.5500   -1.6540    1.2540 H   0  0  0  0  0  0  0  0  0  0  0  0
   -1.9110   -2.4740   -2.8420 H   0  0  0  0  0  0  0  0  0  0  0  0
   -6.0460    4.3680   -2.6730 H   0  0  0  0  0  0  0  0  0  0  0  0
   -7.4610    3.9610   -1.6810 H   0  0  0  0  0  0  0  0  0  0  0  0
   -6.6330    2.6920   -2.6070 H   0  0  0  0  0  0  0  0  0  0  0  0
   -1.8750   -3.9060    1.7990 H   0  0  0  0  0  0  0  0  0  0  0  0
   -1.2450   -4.7220   -2.2770 H   0  0  0  0  0  0  0  0  0  0  0  0
   -1.2210   -5.4470    0.0400 H   0  0  0  0  0  0  0  0  0  0  0  0
  1  2  1  0  0  0  0
  1  3  1  0  0  0  0
  1  4  1  0  0  0  0
  2  5  1  0  0  0  0
  2  6  1  0  0  0  0
  2 32  1  0  0  0  0
  3 33  1  0  0  0  0
  3  7  1  0  0  0  0
  3  8  1  0  0  0  0
  4 10  2  0  0  0  0
  4  9  1  0  0  0  0
  5 11  1  0  0  0  0
  5 34  1  0  0  0  0
  5  7  1  0  0  0  0
  6 37  1  0  0  0  0
  6 12  1  0  0  0  0
  6 38  1  0  0  0  0
  7 39  1  0  0  0  0
  7 40  1  0  0  0  0
  8 14  1  0  0  0  0
  8 13  2  0  0  0  0
  9 35  1  0  0  0  0
  9 15  1  0  0  0  0
  9 16  1  0  0  0  0
 11 17  1  0  0  0  0
 11 41  1  0  0  0  0
 11 42  1  0  0  0  0
 12 44  1  0  0  0  0
 12 17  1  0  0  0  0
 12 43  1  0  0  0  0
 15 46  1  0  0  0  0
 15 45  1  0  0  0  0
 15 18  1  0  0  0  0
 16 47  1  0  0  0  0
 16 48  1  0  0  0  0
 16 49  1  0  0  0  0
 17 51  1  0  0  0  0
 17 50  1  0  0  0  0
 18 36  1  0  0  0  0
 18 19  1  0  0  0  0
 18 20  1  0  0  0  0
 19 53  1  0  0  0  0
 19 21  1  0  0  0  0
 19 52  1  0  0  0  0
 20 23  2  0  0  0  0
 20 22  1  0  0  0  0
 21 24  1  0  0  0  0
 21 54  1  0  0  0  0
 21 55  1  0  0  0  0
 22 25  1  0  0  0  0
 24 26  2  0  0  0  0
 24 27  1  0  0  0  0
 25 57  1  0  0  0  0
 25 56  1  0  0  0  0
 25 28  1  0  0  0  0
 26 29  1  0  0  0  0
 26 58  1  0  0  0  0
 27 30  2  0  0  0  0
 27 59  1  0  0  0  0
 28 61  1  0  0  0  0
 28 60  1  0  0  0  0
 28 62  1  0  0  0  0
 29 63  1  0  0  0  0
 29 31  2  0  0  0  0
 30 31  1  0  0  0  0
 30 64  1  0  0  0  0
 31 65  1  0  0  0  0
M  END
