decoy-1047
 OpenBabel06062114513D

 14 14  0  0  0  0  0  0  0  0999 V2000
   -0.0660    1.3960    0.0310 C   0  0  0  0  0  0  0  0  0  0  0  0
   -0.0390   -0.0280    0.0230 C   0  0  0  0  0  0  0  0  0  0  0  0
    1.1660    2.0970    0.0200 C   0  0  0  0  0  0  0  0  0  0  0  0
   -1.2710    2.1460    0.0470 C   0  0  0  0  0  0  0  0  0  0  0  0
    1.2010   -0.7110   -0.0210 C   0  0  0  0  0  0  0  0  0  0  0  0
   -1.7640   -1.1510    0.1780 I   0  0  0  0  0  0  0  0  0  0  0  0
    2.3910    1.4120   -0.0230 C   0  0  0  0  0  0  0  0  0  0  0  0
   -1.3080    3.4130    0.5220 O   0  0  0  0  0  0  0  0  0  0  0  0
   -2.3720    1.7350   -0.6200 O   0  0  0  0  0  0  0  0  0  0  0  0
    2.4060    0.0110   -0.0480 C   0  0  0  0  0  0  0  0  0  0  0  0
    1.3490   -2.7640   -0.0360 I   0  0  0  0  0  0  0  0  0  0  0  0
    4.1570    2.4580   -0.0560 I   0  0  0  0  0  0  0  0  0  0  0  0
    1.1880    3.1190    0.0230 H   0  0  0  0  0  0  0  0  0  0  0  0
    3.2980   -0.4840   -0.0800 H   0  0  0  0  0  0  0  0  0  0  0  0
  1  4  1  0  0  0  0
  1  2  2  0  0  0  0
  1  3  1  0  0  0  0
  2  6  1  0  0  0  0
  2  5  1  0  0  0  0
  3 13  1  0  0  0  0
  3  7  2  0  0  0  0
  4  8  1  0  0  0  0
  4  9  2  0  0  0  0
  5 10  2  0  0  0  0
  5 11  1  0  0  0  0
  7 10  1  0  0  0  0
  7 12  1  0  0  0  0
 10 14  1  0  0  0  0
M  END
