decoy-867
 OpenBabel06062114513D

 58 61  0  0  0  0  0  0  0  0999 V2000
   -1.6600    1.8820   -0.2920 C   0  0  0  0  0  0  0  0  0  0  0  0
   -1.5130    0.9150    0.9370 C   0  0  0  0  0  0  0  0  0  0  0  0
   -0.3500    1.8520   -1.1440 C   0  0  0  0  0  0  0  0  0  0  0  0
   -2.9680    1.5820   -1.1470 C   0  0  0  0  0  0  0  0  0  0  0  0
   -0.2330    1.0560    1.6480 C   0  0  0  0  0  0  0  0  0  0  0  0
   -1.8010   -0.4560    0.5010 C   0  0  0  0  0  0  0  0  0  0  0  0
   -2.5240    1.2590    1.8910 O   0  0  0  0  0  0  0  0  0  0  0  0
    0.9530    2.0860   -0.2920 C   0  0  0  0  0  0  0  0  0  0  0  0
   -0.4180    2.8630   -2.1560 O   0  0  0  0  0  0  0  0  0  0  0  0
   -3.5120    0.2220   -0.9840 C   0  0  0  0  0  0  0  0  0  0  0  0
   -4.0680    2.6150   -1.0350 *   0  0  0  0  0  0  0  0  0  0  0  0
    0.8570    1.6460    1.1100 C   0  0  0  0  0  0  0  0  0  0  0  0
   -0.1470    0.5340    2.8780 O   0  0  0  0  0  0  0  0  0  0  0  0
   -2.9520   -0.7220   -0.1910 C   0  0  0  0  0  0  0  0  0  0  0  0
   -0.9530   -1.3390    0.6090 O   0  0  0  0  0  0  0  0  0  0  0  0
    2.2860    1.5230   -0.9610 C   0  0  0  0  0  0  0  0  0  0  0  0
   -4.6000   -0.0880   -1.6990 O   0  0  0  0  0  0  0  0  0  0  0  0
   -3.7430    3.9270   -1.6730 C   0  0  0  0  0  0  0  0  0  0  0  0
   -4.6660    2.8000    0.3200 C   0  0  0  0  0  0  0  0  0  0  0  0
    1.9580    1.8970    1.8730 C   0  0  0  0  0  0  0  0  0  0  0  0
   -3.5330   -1.9430   -0.0470 C   0  0  0  0  0  0  0  0  0  0  0  0
    3.4250    1.3320    0.0200 C   0  0  0  0  0  0  0  0  0  0  0  0
    2.7210    2.4470   -2.1440 C   0  0  0  0  0  0  0  0  0  0  0  0
    2.0440    0.2190   -1.4980 O   0  0  0  0  0  0  0  0  0  0  0  0
    3.2200    1.5310    1.4180 C   0  0  0  0  0  0  0  0  0  0  0  0
    1.8500    2.7410    2.7540 O   0  0  0  0  0  0  0  0  0  0  0  0
   -3.4360   -2.8540   -0.9890 N   0  0  0  0  0  0  0  0  0  0  0  0
   -4.1440   -2.2140    0.9760 O   0  0  0  0  0  0  0  0  0  0  0  0
    4.6890    0.8540   -0.4130 C   0  0  0  0  0  0  0  0  0  0  0  0
    4.2850    1.2960    2.3310 C   0  0  0  0  0  0  0  0  0  0  0  0
    5.7410    0.6460    0.4920 C   0  0  0  0  0  0  0  0  0  0  0  0
    5.5410    0.8760    1.8600 C   0  0  0  0  0  0  0  0  0  0  0  0
    4.1490    1.4280    3.6780 O   0  0  0  0  0  0  0  0  0  0  0  0
   -1.7250    2.8970    0.1080 H   0  0  0  0  0  0  0  0  0  0  0  0
    1.0610    3.1760   -0.2160 H   0  0  0  0  0  0  0  0  0  0  0  0
   -0.3040    0.8830   -1.6460 H   0  0  0  0  0  0  0  0  0  0  0  0
   -2.6850    1.5790   -2.2020 H   0  0  0  0  0  0  0  0  0  0  0  0
   -2.3230    2.1790    2.1640 H   0  0  0  0  0  0  0  0  0  0  0  0
   -1.1250    2.5850   -2.7720 H   0  0  0  0  0  0  0  0  0  0  0  0
   -4.8320    2.2440   -1.6030 H   0  0  0  0  0  0  0  0  0  0  0  0
   -0.9690    0.0180    3.0180 H   0  0  0  0  0  0  0  0  0  0  0  0
   -4.7010    0.6200   -2.3690 H   0  0  0  0  0  0  0  0  0  0  0  0
   -2.9740    4.4700   -1.1200 H   0  0  0  0  0  0  0  0  0  0  0  0
   -4.6360    4.5530   -1.7220 H   0  0  0  0  0  0  0  0  0  0  0  0
   -3.3970    3.7820   -2.6970 H   0  0  0  0  0  0  0  0  0  0  0  0
   -4.9380    1.8390    0.7590 H   0  0  0  0  0  0  0  0  0  0  0  0
   -5.5830    3.3880    0.2440 H   0  0  0  0  0  0  0  0  0  0  0  0
   -3.9830    3.3180    0.9950 H   0  0  0  0  0  0  0  0  0  0  0  0
    1.9330    2.5230   -2.8920 H   0  0  0  0  0  0  0  0  0  0  0  0
    3.5990    2.0630   -2.6630 H   0  0  0  0  0  0  0  0  0  0  0  0
    2.9530    3.4500   -1.7800 H   0  0  0  0  0  0  0  0  0  0  0  0
    1.7680   -0.3290   -0.7330 H   0  0  0  0  0  0  0  0  0  0  0  0
   -3.8510   -3.7230   -0.8690 H   0  0  0  0  0  0  0  0  0  0  0  0
   -2.9490   -2.6610   -1.8060 H   0  0  0  0  0  0  0  0  0  0  0  0
    4.8560    0.6340   -1.3960 H   0  0  0  0  0  0  0  0  0  0  0  0
    6.6470    0.3110    0.1580 H   0  0  0  0  0  0  0  0  0  0  0  0
    6.3070    0.7070    2.5170 H   0  0  0  0  0  0  0  0  0  0  0  0
    3.1990    1.2850    3.8680 H   0  0  0  0  0  0  0  0  0  0  0  0
  1  4  1  0  0  0  0
  1 34  1  0  0  0  0
  1  2  1  0  0  0  0
  1  3  1  0  0  0  0
  2  5  1  0  0  0  0
  2  7  1  0  0  0  0
  2  6  1  0  0  0  0
  3  8  1  0  0  0  0
  3  9  1  0  0  0  0
  3 36  1  0  0  0  0
  4 37  1  0  0  0  0
  4 11  1  0  0  0  0
  4 10  1  0  0  0  0
  5 13  1  0  0  0  0
  5 12  2  0  0  0  0
  6 15  2  0  0  0  0
  6 14  1  0  0  0  0
  7 38  1  0  0  0  0
  8 35  1  0  0  0  0
  8 12  1  0  0  0  0
  8 16  1  0  0  0  0
  9 39  1  0  0  0  0
 10 14  2  0  0  0  0
 10 17  1  0  0  0  0
 11 19  1  0  0  0  0
 11 18  1  0  0  0  0
 11 40  1  0  0  0  0
 12 20  1  0  0  0  0
 13 41  1  0  0  0  0
 14 21  1  0  0  0  0
 16 22  1  0  0  0  0
 16 23  1  0  0  0  0
 16 24  1  0  0  0  0
 17 42  1  0  0  0  0
 18 43  1  0  0  0  0
 18 44  1  0  0  0  0
 18 45  1  0  0  0  0
 19 46  1  0  0  0  0
 19 48  1  0  0  0  0
 19 47  1  0  0  0  0
 20 26  2  0  0  0  0
 20 25  1  0  0  0  0
 21 28  2  0  0  0  0
 21 27  1  0  0  0  0
 22 25  2  0  0  0  0
 22 29  1  0  0  0  0
 23 51  1  0  0  0  0
 23 49  1  0  0  0  0
 23 50  1  0  0  0  0
 24 52  1  0  0  0  0
 25 30  1  0  0  0  0
 27 53  1  0  0  0  0
 27 54  1  0  0  0  0
 29 31  2  0  0  0  0
 29 55  1  0  0  0  0
 30 33  1  0  0  0  0
 30 32  2  0  0  0  0
 31 32  1  0  0  0  0
 31 56  1  0  0  0  0
 32 57  1  0  0  0  0
 33 58  1  0  0  0  0
M  END
