decoy-124
 OpenBabel06062114503D

 24 24  0  0  0  0  0  0  0  0999 V2000
   -0.1820    1.3370   -0.0590 C   0  0  0  0  0  0  0  0  0  0  0  0
   -0.0500   -0.0660   -0.0020 C   0  0  0  0  0  0  0  0  0  0  0  0
    0.9670    2.1510   -0.0480 C   0  0  0  0  0  0  0  0  0  0  0  0
   -2.0270    2.2370   -0.1570 I   0  0  0  0  0  0  0  0  0  0  0  0
    1.2330   -0.6410    0.0640 C   0  0  0  0  0  0  0  0  0  0  0  0
   -1.1280   -0.8900   -0.0100 O   0  0  0  0  0  0  0  0  0  0  0  0
    2.2610    1.5840    0.0240 C   0  0  0  0  0  0  0  0  0  0  0  0
    2.3780    0.1760    0.0760 C   0  0  0  0  0  0  0  0  0  0  0  0
    3.4790    2.4430    0.0360 C   0  0  0  0  0  0  0  0  0  0  0  0
    4.2220    2.4390    1.4030 C   0  0  0  0  0  0  0  0  0  0  0  0
    5.4680    3.2290    1.3450 C   0  0  0  0  0  0  0  0  0  0  0  0
    3.3700    2.9810    2.4720 C   0  0  0  0  0  0  0  0  0  0  0  0
    6.6670    2.6440    1.5630 O   0  0  0  0  0  0  0  0  0  0  0  0
    5.4390    4.5560    1.0850 O   0  0  0  0  0  0  0  0  0  0  0  0
    0.8510    3.1660   -0.0860 H   0  0  0  0  0  0  0  0  0  0  0  0
    1.3370   -1.6580    0.1030 H   0  0  0  0  0  0  0  0  0  0  0  0
   -1.9150   -0.3110   -0.0590 H   0  0  0  0  0  0  0  0  0  0  0  0
    3.3000   -0.2650    0.1180 H   0  0  0  0  0  0  0  0  0  0  0  0
    4.1550    2.0870   -0.7470 H   0  0  0  0  0  0  0  0  0  0  0  0
    3.2180    3.4740   -0.2180 H   0  0  0  0  0  0  0  0  0  0  0  0
    4.4750    1.4110    1.6720 H   0  0  0  0  0  0  0  0  0  0  0  0
    3.8790    2.9630    3.3590 H   0  0  0  0  0  0  0  0  0  0  0  0
    3.1090    3.9450    2.2510 H   0  0  0  0  0  0  0  0  0  0  0  0
    2.5240    2.4140    2.5590 H   0  0  0  0  0  0  0  0  0  0  0  0
  1  3  2  0  0  0  0
  1  2  1  0  0  0  0
  1  4  1  0  0  0  0
  2  5  2  0  0  0  0
  2  6  1  0  0  0  0
  3  7  1  0  0  0  0
  3 15  1  0  0  0  0
  5  8  1  0  0  0  0
  5 16  1  0  0  0  0
  6 17  1  0  0  0  0
  7  9  1  0  0  0  0
  7  8  2  0  0  0  0
  8 18  1  0  0  0  0
  9 10  1  0  0  0  0
  9 19  1  0  0  0  0
  9 20  1  0  0  0  0
 10 21  1  0  0  0  0
 10 12  1  0  0  0  0
 10 11  1  0  0  0  0
 11 13  1  0  0  0  0
 11 14  2  0  0  0  0
 12 24  1  0  0  0  0
 12 22  1  0  0  0  0
 12 23  1  0  0  0  0
M  END
