decoy-315
 OpenBabel06062114513D

 28 29  0  0  0  0  0  0  0  0999 V2000
    0.0080    1.3570    0.6380 C   0  0  0  0  0  0  0  0  0  0  0  0
   -0.3770    0.2450   -0.1460 C   0  0  0  0  0  0  0  0  0  0  0  0
    1.3710    1.7060    0.7300 C   0  0  0  0  0  0  0  0  0  0  0  0
   -1.1210    2.3010    1.4820 Cl  0  0  0  0  0  0  0  0  0  0  0  0
    0.6080   -0.4930   -0.8300 C   0  0  0  0  0  0  0  0  0  0  0  0
   -1.9960   -0.2360   -0.3070 Cl  0  0  0  0  0  0  0  0  0  0  0  0
    2.3700    0.9610    0.0640 C   0  0  0  0  0  0  0  0  0  0  0  0
    1.9650   -0.1380   -0.7310 C   0  0  0  0  0  0  0  0  0  0  0  0
    3.6590    1.4010    0.2160 N   0  0  0  0  0  0  0  0  0  0  0  0
    4.8170    0.7820    0.0300 C   0  0  0  0  0  0  0  0  0  0  0  0
    5.8990    1.5170    0.2460 N   0  0  0  0  0  0  0  0  0  0  0  0
    4.8820   -0.3890   -0.3160 O   0  0  0  0  0  0  0  0  0  0  0  0
    7.2310    1.2000    0.1740 C   0  0  0  0  0  0  0  0  0  0  0  0
    8.1260    2.2880    0.0610 C   0  0  0  0  0  0  0  0  0  0  0  0
    7.7730   -0.1080    0.2460 C   0  0  0  0  0  0  0  0  0  0  0  0
    9.5160    2.0810   -0.0090 C   0  0  0  0  0  0  0  0  0  0  0  0
    9.1630   -0.3180    0.1780 C   0  0  0  0  0  0  0  0  0  0  0  0
   10.0380    0.7750    0.0460 C   0  0  0  0  0  0  0  0  0  0  0  0
   11.7100    0.5230   -0.0340 Cl  0  0  0  0  0  0  0  0  0  0  0  0
    1.6410    2.5140    1.2990 H   0  0  0  0  0  0  0  0  0  0  0  0
    0.3420   -1.2920   -1.4130 H   0  0  0  0  0  0  0  0  0  0  0  0
    2.6430   -0.6770   -1.2700 H   0  0  0  0  0  0  0  0  0  0  0  0
    3.7380    2.3060    0.5600 H   0  0  0  0  0  0  0  0  0  0  0  0
    5.7180    2.4490    0.4480 H   0  0  0  0  0  0  0  0  0  0  0  0
    7.7700    3.2460    0.0210 H   0  0  0  0  0  0  0  0  0  0  0  0
    7.1710   -0.9210    0.3750 H   0  0  0  0  0  0  0  0  0  0  0  0
   10.1430    2.8840   -0.0970 H   0  0  0  0  0  0  0  0  0  0  0  0
    9.5320   -1.2710    0.2330 H   0  0  0  0  0  0  0  0  0  0  0  0
  1  3  2  0  0  0  0
  1  4  1  0  0  0  0
  1  2  1  0  0  0  0
  2  5  2  0  0  0  0
  2  6  1  0  0  0  0
  3 20  1  0  0  0  0
  3  7  1  0  0  0  0
  5  8  1  0  0  0  0
  5 21  1  0  0  0  0
  7  9  1  0  0  0  0
  7  8  2  0  0  0  0
  8 22  1  0  0  0  0
  9 23  1  0  0  0  0
  9 10  1  0  0  0  0
 10 11  1  0  0  0  0
 10 12  2  0  0  0  0
 11 24  1  0  0  0  0
 11 13  1  0  0  0  0
 13 15  2  0  0  0  0
 13 14  1  0  0  0  0
 14 16  2  0  0  0  0
 14 25  1  0  0  0  0
 15 26  1  0  0  0  0
 15 17  1  0  0  0  0
 16 18  1  0  0  0  0
 16 27  1  0  0  0  0
 17 28  1  0  0  0  0
 17 18  2  0  0  0  0
 18 19  1  0  0  0  0
M  END
