decoy-113
 OpenBabel06062114503D

 41 43  0  0  0  0  0  0  0  0999 V2000
   -0.0600    1.2590   -0.2730 C   0  0  0  0  0  0  0  0  0  0  0  0
   -0.0960   -0.0410    0.3040 C   0  0  0  0  0  0  0  0  0  0  0  0
    1.1000    2.0110   -0.2750 O   0  0  0  0  0  0  0  0  0  0  0  0
   -1.2120    1.8150   -0.8570 C   0  0  0  0  0  0  0  0  0  0  0  0
    1.0970   -0.4950    0.8830 C   0  0  0  0  0  0  0  0  0  0  0  0
   -1.3130   -0.7730    0.2590 C   0  0  0  0  0  0  0  0  0  0  0  0
    2.2330    1.4600    0.2280 C   0  0  0  0  0  0  0  0  0  0  0  0
   -2.4160    1.0890   -0.8810 C   0  0  0  0  0  0  0  0  0  0  0  0
    2.2430    0.2400    0.8060 C   0  0  0  0  0  0  0  0  0  0  0  0
    1.1290   -1.5180    1.5550 O   0  0  0  0  0  0  0  0  0  0  0  0
   -2.4610   -0.2010   -0.3240 C   0  0  0  0  0  0  0  0  0  0  0  0
   -1.4360   -2.0320    0.7530 O   0  0  0  0  0  0  0  0  0  0  0  0
    3.3800    2.2300    0.1480 C   0  0  0  0  0  0  0  0  0  0  0  0
   -3.5360    1.6140   -1.4390 O   0  0  0  0  0  0  0  0  0  0  0  0
    3.4610    3.4550    0.8460 C   0  0  0  0  0  0  0  0  0  0  0  0
    4.4690    1.8280   -0.6570 C   0  0  0  0  0  0  0  0  0  0  0  0
    4.6070    4.2680    0.7400 C   0  0  0  0  0  0  0  0  0  0  0  0
    5.6420    2.6090   -0.7300 C   0  0  0  0  0  0  0  0  0  0  0  0
    5.7150    3.8300   -0.0230 C   0  0  0  0  0  0  0  0  0  0  0  0
    4.6510    5.4570    1.4170 O   0  0  0  0  0  0  0  0  0  0  0  0
    6.6740    2.2410   -1.5530 O   0  0  0  0  0  0  0  0  0  0  0  0
    6.8190    4.6290   -0.1630 O   0  0  0  0  0  0  0  0  0  0  0  0
    4.1510    6.5660    0.6500 C   0  0  0  0  0  0  0  0  0  0  0  0
    7.4550    1.1340   -1.0690 C   0  0  0  0  0  0  0  0  0  0  0  0
    7.7520    4.5370    0.9280 C   0  0  0  0  0  0  0  0  0  0  0  0
   -1.1730    2.7520   -1.2660 H   0  0  0  0  0  0  0  0  0  0  0  0
    3.0890   -0.1240    1.1860 H   0  0  0  0  0  0  0  0  0  0  0  0
   -3.3360   -0.7310   -0.3490 H   0  0  0  0  0  0  0  0  0  0  0  0
   -0.5870   -2.4770    0.5540 H   0  0  0  0  0  0  0  0  0  0  0  0
   -3.2820    2.5050   -1.7600 H   0  0  0  0  0  0  0  0  0  0  0  0
    2.6780    3.7720    1.4240 H   0  0  0  0  0  0  0  0  0  0  0  0
    4.4120    0.9620   -1.2000 H   0  0  0  0  0  0  0  0  0  0  0  0
    4.2270    7.4640    1.2620 H   0  0  0  0  0  0  0  0  0  0  0  0
    4.7400    6.7210   -0.2580 H   0  0  0  0  0  0  0  0  0  0  0  0
    3.1010    6.4230    0.3830 H   0  0  0  0  0  0  0  0  0  0  0  0
    8.2820    0.9740   -1.7610 H   0  0  0  0  0  0  0  0  0  0  0  0
    7.8720    1.3370   -0.0800 H   0  0  0  0  0  0  0  0  0  0  0  0
    6.8630    0.2170   -1.0300 H   0  0  0  0  0  0  0  0  0  0  0  0
    8.5970    5.1890    0.7070 H   0  0  0  0  0  0  0  0  0  0  0  0
    7.3030    4.8680    1.8670 H   0  0  0  0  0  0  0  0  0  0  0  0
    8.1290    3.5200    1.0470 H   0  0  0  0  0  0  0  0  0  0  0  0
  1  2  2  0  0  0  0
  1  3  1  0  0  0  0
  1  4  1  0  0  0  0
  2  5  1  0  0  0  0
  2  6  1  0  0  0  0
  3  7  1  0  0  0  0
  4  8  2  0  0  0  0
  4 26  1  0  0  0  0
  5 10  2  0  0  0  0
  5  9  1  0  0  0  0
  6 12  1  0  0  0  0
  6 11  2  0  0  0  0
  7  9  2  0  0  0  0
  7 13  1  0  0  0  0
  8 11  1  0  0  0  0
  8 14  1  0  0  0  0
  9 27  1  0  0  0  0
 11 28  1  0  0  0  0
 12 29  1  0  0  0  0
 13 15  2  0  0  0  0
 13 16  1  0  0  0  0
 14 30  1  0  0  0  0
 15 31  1  0  0  0  0
 15 17  1  0  0  0  0
 16 18  2  0  0  0  0
 16 32  1  0  0  0  0
 17 20  1  0  0  0  0
 17 19  2  0  0  0  0
 18 19  1  0  0  0  0
 18 21  1  0  0  0  0
 19 22  1  0  0  0  0
 20 23  1  0  0  0  0
 21 24  1  0  0  0  0
 22 25  1  0  0  0  0
 23 33  1  0  0  0  0
 23 34  1  0  0  0  0
 23 35  1  0  0  0  0
 24 38  1  0  0  0  0
 24 37  1  0  0  0  0
 24 36  1  0  0  0  0
 25 41  1  0  0  0  0
 25 40  1  0  0  0  0
 25 39  1  0  0  0  0
M  END
