decoy-512
 OpenBabel06062114513D

 79 83  0  0  0  0  0  0  0  0999 V2000
    0.2080    1.2700    0.0820 C   0  0  0  0  0  0  0  0  0  0  0  0
    0.6480   -0.1730    0.6170 C   0  0  0  0  0  0  0  0  0  0  0  0
    1.3540    2.3710   -0.1840 C   0  0  0  0  0  0  0  0  0  0  0  0
   -0.8550    1.0930   -0.9250 C   0  0  0  0  0  0  0  0  0  0  0  0
   -0.6860   -1.0100    1.0620 C   0  0  0  0  0  0  0  0  0  0  0  0
    1.6720    0.0410    1.8000 C   0  0  0  0  0  0  0  0  0  0  0  0
    1.4320   -0.9490   -0.5100 C   0  0  0  0  0  0  0  0  0  0  0  0
    2.2500    2.4760    1.1350 C   0  0  0  0  0  0  0  0  0  0  0  0
    0.6840    3.7960   -0.3700 C   0  0  0  0  0  0  0  0  0  0  0  0
    2.1770    2.0380   -1.4920 C   0  0  0  0  0  0  0  0  0  0  0  0
   -1.8050    0.1190   -0.8280 C   0  0  0  0  0  0  0  0  0  0  0  0
   -0.8590    1.7420   -1.9630 O   0  0  0  0  0  0  0  0  0  0  0  0
   -1.7260   -0.9640   -0.0180 C   0  0  0  0  0  0  0  0  0  0  0  0
   -0.3920   -2.5270    1.4600 C   0  0  0  0  0  0  0  0  0  0  0  0
   -1.3700   -0.3610    2.3440 C   0  0  0  0  0  0  0  0  0  0  0  0
    2.8070    1.0730    1.5540 C   0  0  0  0  0  0  0  0  0  0  0  0
    3.2890    3.6860    1.2340 C   0  0  0  0  0  0  0  0  0  0  0  0
    1.6510    5.0080   -0.3300 C   0  0  0  0  0  0  0  0  0  0  0  0
   -2.6300   -2.1270   -0.2960 C   0  0  0  0  0  0  0  0  0  0  0  0
   -0.6380   -3.6520    0.3980 C   0  0  0  0  0  0  0  0  0  0  0  0
    2.5100    5.0300    0.9560 C   0  0  0  0  0  0  0  0  0  0  0  0
    3.8770    3.7970    2.6910 C   0  0  0  0  0  0  0  0  0  0  0  0
    4.5210    3.5490    0.2760 C   0  0  0  0  0  0  0  0  0  0  0  0
   -1.8020   -3.4250   -0.6500 C   0  0  0  0  0  0  0  0  0  0  0  0
   -3.7050   -2.3680    0.8210 C   0  0  0  0  0  0  0  0  0  0  0  0
    3.3700    6.1700    0.8670 O   0  0  0  0  0  0  0  0  0  0  0  0
   -2.7490   -4.6870   -0.7540 C   0  0  0  0  0  0  0  0  0  0  0  0
   -1.1870   -3.2780   -2.0920 C   0  0  0  0  0  0  0  0  0  0  0  0
   -4.6820   -3.5630    0.5550 C   0  0  0  0  0  0  0  0  0  0  0  0
   -3.7860   -4.8370    0.3890 C   0  0  0  0  0  0  0  0  0  0  0  0
   -5.5430   -3.3200   -0.6430 C   0  0  0  0  0  0  0  0  0  0  0  0
   -5.6320   -3.7540    1.7810 C   0  0  0  0  0  0  0  0  0  0  0  0
   -6.1780   -4.3520   -1.2440 O   0  0  0  0  0  0  0  0  0  0  0  0
   -6.0890   -2.0990   -0.8510 O   0  0  0  0  0  0  0  0  0  0  0  0
   -0.3380    1.7260    0.9020 H   0  0  0  0  0  0  0  0  0  0  0  0
    1.5350    2.7080    1.9350 H   0  0  0  0  0  0  0  0  0  0  0  0
   -3.2370   -1.9170   -1.1830 H   0  0  0  0  0  0  0  0  0  0  0  0
    1.1550    0.4040    2.6850 H   0  0  0  0  0  0  0  0  0  0  0  0
    2.1380   -0.9070    2.0760 H   0  0  0  0  0  0  0  0  0  0  0  0
    0.8980   -0.9210   -1.4530 H   0  0  0  0  0  0  0  0  0  0  0  0
    2.4150   -0.5380   -0.7060 H   0  0  0  0  0  0  0  0  0  0  0  0
    1.6150   -1.9840   -0.2430 H   0  0  0  0  0  0  0  0  0  0  0  0
    0.1560    3.8550   -1.3230 H   0  0  0  0  0  0  0  0  0  0  0  0
   -0.0630    3.9590    0.4110 H   0  0  0  0  0  0  0  0  0  0  0  0
    3.1180    1.5440   -1.2700 H   0  0  0  0  0  0  0  0  0  0  0  0
    1.6260    1.3890   -2.1700 H   0  0  0  0  0  0  0  0  0  0  0  0
    2.4250    2.9220   -2.0750 H   0  0  0  0  0  0  0  0  0  0  0  0
   -2.5510    0.1610   -1.4880 H   0  0  0  0  0  0  0  0  0  0  0  0
    0.6290   -2.6280    1.8250 H   0  0  0  0  0  0  0  0  0  0  0  0
   -1.0020   -2.8160    2.3200 H   0  0  0  0  0  0  0  0  0  0  0  0
   -1.5970    0.6950    2.2410 H   0  0  0  0  0  0  0  0  0  0  0  0
   -2.3190   -0.8170    2.5970 H   0  0  0  0  0  0  0  0  0  0  0  0
   -0.7530   -0.4890    3.2330 H   0  0  0  0  0  0  0  0  0  0  0  0
    3.3510    1.1460    2.4960 H   0  0  0  0  0  0  0  0  0  0  0  0
    3.5210    0.6970    0.8240 H   0  0  0  0  0  0  0  0  0  0  0  0
    2.2960    5.0180   -1.2090 H   0  0  0  0  0  0  0  0  0  0  0  0
    1.0550    5.9260   -0.3700 H   0  0  0  0  0  0  0  0  0  0  0  0
    0.3030   -3.8400   -0.1230 H   0  0  0  0  0  0  0  0  0  0  0  0
   -0.8200   -4.5750    0.9560 H   0  0  0  0  0  0  0  0  0  0  0  0
    1.8250    5.2240    1.7880 H   0  0  0  0  0  0  0  0  0  0  0  0
    4.5660    2.9820    2.9130 H   0  0  0  0  0  0  0  0  0  0  0  0
    4.4410    4.7220    2.8270 H   0  0  0  0  0  0  0  0  0  0  0  0
    3.0810    3.7830    3.4390 H   0  0  0  0  0  0  0  0  0  0  0  0
    4.2450    3.6670   -0.7680 H   0  0  0  0  0  0  0  0  0  0  0  0
    5.2700    4.3150    0.4890 H   0  0  0  0  0  0  0  0  0  0  0  0
    5.0030    2.5770    0.3960 H   0  0  0  0  0  0  0  0  0  0  0  0
   -3.2090   -2.5960    1.7600 H   0  0  0  0  0  0  0  0  0  0  0  0
   -4.2750   -1.4460    0.9710 H   0  0  0  0  0  0  0  0  0  0  0  0
    3.7610    6.2770    1.7580 H   0  0  0  0  0  0  0  0  0  0  0  0
   -3.3210   -4.6570   -1.6860 H   0  0  0  0  0  0  0  0  0  0  0  0
   -2.1450   -5.5990   -0.7950 H   0  0  0  0  0  0  0  0  0  0  0  0
   -0.5160   -2.4320   -2.1550 H   0  0  0  0  0  0  0  0  0  0  0  0
   -0.6240   -4.1720   -2.3690 H   0  0  0  0  0  0  0  0  0  0  0  0
   -1.9630   -3.1240   -2.8450 H   0  0  0  0  0  0  0  0  0  0  0  0
   -4.4090   -5.7130    0.1870 H   0  0  0  0  0  0  0  0  0  0  0  0
   -3.2490   -5.0410    1.3200 H   0  0  0  0  0  0  0  0  0  0  0  0
   -6.2420   -2.8620    1.9430 H   0  0  0  0  0  0  0  0  0  0  0  0
   -6.3030   -4.6030    1.6250 H   0  0  0  0  0  0  0  0  0  0  0  0
   -5.0610   -3.9410    2.6930 H   0  0  0  0  0  0  0  0  0  0  0  0
  1  3  1  0  0  0  0
  1 35  1  0  0  0  0
  1  2  1  0  0  0  0
  1  4  1  0  0  0  0
  2  6  1  0  0  0  0
  2  5  1  0  0  0  0
  2  7  1  0  0  0  0
  3  8  1  0  0  0  0
  3  9  1  0  0  0  0
  3 10  1  0  0  0  0
  4 11  1  0  0  0  0
  4 12  2  0  0  0  0
  5 14  1  0  0  0  0
  5 15  1  0  0  0  0
  5 13  1  0  0  0  0
  6 39  1  0  0  0  0
  6 38  1  0  0  0  0
  6 16  1  0  0  0  0
  7 42  1  0  0  0  0
  7 40  1  0  0  0  0
  7 41  1  0  0  0  0
  8 17  1  0  0  0  0
  8 16  1  0  0  0  0
  8 36  1  0  0  0  0
  9 18  1  0  0  0  0
  9 44  1  0  0  0  0
  9 43  1  0  0  0  0
 10 45  1  0  0  0  0
 10 46  1  0  0  0  0
 10 47  1  0  0  0  0
 11 13  2  0  0  0  0
 11 48  1  0  0  0  0
 13 19  1  0  0  0  0
 14 49  1  0  0  0  0
 14 50  1  0  0  0  0
 14 20  1  0  0  0  0
 15 52  1  0  0  0  0
 15 53  1  0  0  0  0
 15 51  1  0  0  0  0
 16 54  1  0  0  0  0
 16 55  1  0  0  0  0
 17 22  1  0  0  0  0
 17 21  1  0  0  0  0
 17 23  1  0  0  0  0
 18 21  1  0  0  0  0
 18 56  1  0  0  0  0
 18 57  1  0  0  0  0
 19 24  1  0  0  0  0
 19 25  1  0  0  0  0
 19 37  1  0  0  0  0
 20 59  1  0  0  0  0
 20 24  1  0  0  0  0
 20 58  1  0  0  0  0
 21 60  1  0  0  0  0
 21 26  1  0  0  0  0
 22 62  1  0  0  0  0
 22 61  1  0  0  0  0
 22 63  1  0  0  0  0
 23 66  1  0  0  0  0
 23 65  1  0  0  0  0
 23 64  1  0  0  0  0
 24 28  1  0  0  0  0
 24 27  1  0  0  0  0
 25 68  1  0  0  0  0
 25 67  1  0  0  0  0
 25 29  1  0  0  0  0
 26 69  1  0  0  0  0
 27 30  1  0  0  0  0
 27 70  1  0  0  0  0
 27 71  1  0  0  0  0
 28 72  1  0  0  0  0
 28 73  1  0  0  0  0
 28 74  1  0  0  0  0
 29 31  1  0  0  0  0
 29 32  1  0  0  0  0
 29 30  1  0  0  0  0
 30 76  1  0  0  0  0
 30 75  1  0  0  0  0
 31 33  2  0  0  0  0
 31 34  1  0  0  0  0
 32 77  1  0  0  0  0
 32 79  1  0  0  0  0
 32 78  1  0  0  0  0
M  END
