decoy-409
 OpenBabel06062114513D

 58 61  0  0  0  0  0  0  0  0999 V2000
   -2.7270    0.8990    0.7100 C   0  0  0  0  0  0  0  0  0  0  0  0
   -3.8690    0.1970   -0.1420 C   0  0  0  0  0  0  0  0  0  0  0  0
   -1.5520    0.8840   -0.3360 C   0  0  0  0  0  0  0  0  0  0  0  0
   -2.1780    0.1310    1.9700 C   0  0  0  0  0  0  0  0  0  0  0  0
   -3.1940    2.3660    1.1310 C   0  0  0  0  0  0  0  0  0  0  0  0
   -3.6500    0.8040   -1.5750 C   0  0  0  0  0  0  0  0  0  0  0  0
   -5.1940    0.4890    0.3450 O   0  0  0  0  0  0  0  0  0  0  0  0
   -3.7550   -1.1840   -0.1940 C   0  0  0  0  0  0  0  0  0  0  0  0
   -0.2280    1.5580    0.1550 C   0  0  0  0  0  0  0  0  0  0  0  0
   -2.2080    1.3660   -1.6450 C   0  0  0  0  0  0  0  0  0  0  0  0
   -0.8690    0.7630    2.5360 C   0  0  0  0  0  0  0  0  0  0  0  0
   -4.0980    2.5330    2.3820 C   0  0  0  0  0  0  0  0  0  0  0  0
   -6.4230    0.2050   -0.1720 C   0  0  0  0  0  0  0  0  0  0  0  0
   -3.6570   -2.3750   -0.2390 C   0  0  0  0  0  0  0  0  0  0  0  0
    0.2760    0.8590    1.4700 C   0  0  0  0  0  0  0  0  0  0  0  0
    0.9070    1.5110   -0.9060 C   0  0  0  0  0  0  0  0  0  0  0  0
   -7.6140    0.6400    0.5670 C   0  0  0  0  0  0  0  0  0  0  0  0
   -6.5580   -0.4680   -1.3390 O   0  0  0  0  0  0  0  0  0  0  0  0
    1.5930    1.5450    2.0040 C   0  0  0  0  0  0  0  0  0  0  0  0
    2.1800    2.2120   -0.3710 C   0  0  0  0  0  0  0  0  0  0  0  0
    2.6120    1.6990    0.9350 C   0  0  0  0  0  0  0  0  0  0  0  0
    2.1750    0.7740    3.2370 C   0  0  0  0  0  0  0  0  0  0  0  0
    3.9380    1.5930    1.1940 C   0  0  0  0  0  0  0  0  0  0  0  0
    3.6020    1.2400    3.6100 C   0  0  0  0  0  0  0  0  0  0  0  0
    4.4640    1.4050    2.4410 C   0  0  0  0  0  0  0  0  0  0  0  0
    5.7430    1.5120    2.5600 N   0  0  0  0  0  0  0  0  0  0  0  0
    6.4600    1.4610    3.6130 O   0  0  0  0  0  0  0  0  0  0  0  0
   -1.2690   -0.1600   -0.5300 H   0  0  0  0  0  0  0  0  0  0  0  0
   -0.4160    2.6150    0.3570 H   0  0  0  0  0  0  0  0  0  0  0  0
    0.5370   -0.1730    1.2090 H   0  0  0  0  0  0  0  0  0  0  0  0
    1.3350    2.5570    2.3390 H   0  0  0  0  0  0  0  0  0  0  0  0
   -2.9370    0.0830    2.7520 H   0  0  0  0  0  0  0  0  0  0  0  0
   -1.9440   -0.9050    1.7150 H   0  0  0  0  0  0  0  0  0  0  0  0
   -2.3340    3.0040    1.3190 H   0  0  0  0  0  0  0  0  0  0  0  0
   -3.7240    2.8350    0.3000 H   0  0  0  0  0  0  0  0  0  0  0  0
   -3.8130    0.0760   -2.3760 H   0  0  0  0  0  0  0  0  0  0  0  0
   -4.3540    1.6210   -1.7480 H   0  0  0  0  0  0  0  0  0  0  0  0
   -2.2150    2.4580   -1.6890 H   0  0  0  0  0  0  0  0  0  0  0  0
   -1.6780    0.9830   -2.5210 H   0  0  0  0  0  0  0  0  0  0  0  0
   -1.0740    1.7550    2.9430 H   0  0  0  0  0  0  0  0  0  0  0  0
   -0.5460    0.1330    3.3660 H   0  0  0  0  0  0  0  0  0  0  0  0
   -4.9520    1.8610    2.3660 H   0  0  0  0  0  0  0  0  0  0  0  0
   -4.4730    3.5570    2.4270 H   0  0  0  0  0  0  0  0  0  0  0  0
   -3.5300    2.3500    3.2950 H   0  0  0  0  0  0  0  0  0  0  0  0
   -3.5750   -3.2940   -0.2810 H   0  0  0  0  0  0  0  0  0  0  0  0
    1.1410    0.4750   -1.1650 H   0  0  0  0  0  0  0  0  0  0  0  0
    0.5870    2.0230   -1.8170 H   0  0  0  0  0  0  0  0  0  0  0  0
   -7.6110    0.1870    1.5590 H   0  0  0  0  0  0  0  0  0  0  0  0
   -8.5250    0.3430    0.0450 H   0  0  0  0  0  0  0  0  0  0  0  0
   -7.6020    1.7250    0.6690 H   0  0  0  0  0  0  0  0  0  0  0  0
    2.9550    2.1120   -1.1360 H   0  0  0  0  0  0  0  0  0  0  0  0
    1.9740    3.2800   -0.2610 H   0  0  0  0  0  0  0  0  0  0  0  0
    1.5350    0.9110    4.1120 H   0  0  0  0  0  0  0  0  0  0  0  0
    2.2130   -0.2970    3.0080 H   0  0  0  0  0  0  0  0  0  0  0  0
    4.5780    1.7310    0.4400 H   0  0  0  0  0  0  0  0  0  0  0  0
    3.5490    2.1960    4.1400 H   0  0  0  0  0  0  0  0  0  0  0  0
    4.0280    0.4940    4.2890 H   0  0  0  0  0  0  0  0  0  0  0  0
    5.8470    1.4780    4.3760 H   0  0  0  0  0  0  0  0  0  0  0  0
  1  3  1  0  0  0  0
  1  5  1  0  0  0  0
  1  4  1  0  0  0  0
  1  2  1  0  0  0  0
  2  7  1  0  0  0  0
  2  6  1  0  0  0  0
  2  8  1  0  0  0  0
  3  9  1  0  0  0  0
  3 10  1  0  0  0  0
  3 28  1  0  0  0  0
  4 11  1  0  0  0  0
  4 32  1  0  0  0  0
  4 33  1  0  0  0  0
  5 34  1  0  0  0  0
  5 12  1  0  0  0  0
  5 35  1  0  0  0  0
  6 10  1  0  0  0  0
  6 36  1  0  0  0  0
  6 37  1  0  0  0  0
  7 13  1  0  0  0  0
  8 14  3  0  0  0  0
  9 29  1  0  0  0  0
  9 15  1  0  0  0  0
  9 16  1  0  0  0  0
 10 38  1  0  0  0  0
 10 39  1  0  0  0  0
 11 40  1  0  0  0  0
 11 41  1  0  0  0  0
 11 15  1  0  0  0  0
 12 43  1  0  0  0  0
 12 44  1  0  0  0  0
 12 42  1  0  0  0  0
 13 17  1  0  0  0  0
 13 18  2  0  0  0  0
 14 45  1  0  0  0  0
 15 19  1  0  0  0  0
 15 30  1  0  0  0  0
 16 20  1  0  0  0  0
 16 46  1  0  0  0  0
 16 47  1  0  0  0  0
 17 50  1  0  0  0  0
 17 48  1  0  0  0  0
 17 49  1  0  0  0  0
 19 31  1  0  0  0  0
 19 22  1  0  0  0  0
 19 21  1  0  0  0  0
 20 52  1  0  0  0  0
 20 21  1  0  0  0  0
 20 51  1  0  0  0  0
 21 23  2  0  0  0  0
 22 24  1  0  0  0  0
 22 53  1  0  0  0  0
 22 54  1  0  0  0  0
 23 25  1  0  0  0  0
 23 55  1  0  0  0  0
 24 56  1  0  0  0  0
 24 57  1  0  0  0  0
 24 25  1  0  0  0  0
 25 26  2  0  0  0  0
 26 27  1  0  0  0  0
 27 58  1  0  0  0  0
M  END
