decoy-335
 OpenBabel06062114513D

 55 57  0  0  0  0  0  0  0  0999 V2000
   -1.8560   -0.0330   -0.0400 C   0  0  0  0  0  0  0  0  0  0  0  0
   -1.2300   -0.6420   -1.1600 C   0  0  0  0  0  0  0  0  0  0  0  0
   -1.0980    0.6030    0.9320 C   0  0  0  0  0  0  0  0  0  0  0  0
   -3.2700   -0.0860    0.0760 C   0  0  0  0  0  0  0  0  0  0  0  0
    0.1290   -0.5920   -1.3480 O   0  0  0  0  0  0  0  0  0  0  0  0
   -2.0150   -1.2620   -2.1540 C   0  0  0  0  0  0  0  0  0  0  0  0
   -0.4300    1.8750    0.6960 C   0  0  0  0  0  0  0  0  0  0  0  0
   -1.0940    0.1300    2.0610 O   0  0  0  0  0  0  0  0  0  0  0  0
   -4.0360   -0.7320   -0.9130 C   0  0  0  0  0  0  0  0  0  0  0  0
   -3.9450    0.4780    1.1140 O   0  0  0  0  0  0  0  0  0  0  0  0
    0.8450   -1.7590   -0.8940 C   0  0  0  0  0  0  0  0  0  0  0  0
   -3.4150   -1.3170   -2.0300 C   0  0  0  0  0  0  0  0  0  0  0  0
    1.0900    1.8240    1.0160 C   0  0  0  0  0  0  0  0  0  0  0  0
    0.7850   -1.8300    0.5470 O   0  0  0  0  0  0  0  0  0  0  0  0
    2.3200   -1.6380   -1.3610 C   0  0  0  0  0  0  0  0  0  0  0  0
   -4.1760   -1.9210   -2.9770 O   0  0  0  0  0  0  0  0  0  0  0  0
    1.7890    3.0920    0.6720 C   0  0  0  0  0  0  0  0  0  0  0  0
    1.4900   -2.9340    1.1510 C   0  0  0  0  0  0  0  0  0  0  0  0
    3.1770   -2.7850   -0.7620 C   0  0  0  0  0  0  0  0  0  0  0  0
    2.3900   -1.6740   -2.7860 O   0  0  0  0  0  0  0  0  0  0  0  0
    1.5540    4.2660    1.4260 C   0  0  0  0  0  0  0  0  0  0  0  0
    2.7050    3.1530   -0.4050 C   0  0  0  0  0  0  0  0  0  0  0  0
    3.0020   -2.8710    0.7780 C   0  0  0  0  0  0  0  0  0  0  0  0
    1.2480   -2.8620    2.6780 C   0  0  0  0  0  0  0  0  0  0  0  0
    4.5540   -2.5830   -1.0770 O   0  0  0  0  0  0  0  0  0  0  0  0
    2.2110    5.4690    1.1090 C   0  0  0  0  0  0  0  0  0  0  0  0
    3.3630    4.3560   -0.7220 C   0  0  0  0  0  0  0  0  0  0  0  0
    3.6990   -4.0190    1.2620 O   0  0  0  0  0  0  0  0  0  0  0  0
   -0.1460   -2.9190    2.9640 O   0  0  0  0  0  0  0  0  0  0  0  0
    3.1180    5.5180    0.0330 C   0  0  0  0  0  0  0  0  0  0  0  0
    3.7600    6.6690   -0.2860 O   0  0  0  0  0  0  0  0  0  0  0  0
   -1.5630   -1.6780   -2.9710 H   0  0  0  0  0  0  0  0  0  0  0  0
   -0.5610    2.1860   -0.3450 H   0  0  0  0  0  0  0  0  0  0  0  0
   -0.9090    2.6300    1.3250 H   0  0  0  0  0  0  0  0  0  0  0  0
   -5.0550   -0.7670   -0.8260 H   0  0  0  0  0  0  0  0  0  0  0  0
   -3.3000    1.0370    1.5920 H   0  0  0  0  0  0  0  0  0  0  0  0
    0.4090   -2.6650   -1.3330 H   0  0  0  0  0  0  0  0  0  0  0  0
    1.2390    1.6200    2.0800 H   0  0  0  0  0  0  0  0  0  0  0  0
    1.5350    0.9910    0.4680 H   0  0  0  0  0  0  0  0  0  0  0  0
    2.7270   -0.6800   -1.0270 H   0  0  0  0  0  0  0  0  0  0  0  0
   -3.5480   -2.2530   -3.6520 H   0  0  0  0  0  0  0  0  0  0  0  0
    1.0670   -3.8770    0.7880 H   0  0  0  0  0  0  0  0  0  0  0  0
    2.8680   -3.7350   -1.2100 H   0  0  0  0  0  0  0  0  0  0  0  0
    1.8690   -0.9000   -3.0870 H   0  0  0  0  0  0  0  0  0  0  0  0
    0.9030    4.2510    2.2160 H   0  0  0  0  0  0  0  0  0  0  0  0
    2.8970    2.3230   -0.9700 H   0  0  0  0  0  0  0  0  0  0  0  0
    3.4510   -1.9830    1.2330 H   0  0  0  0  0  0  0  0  0  0  0  0
    1.7330   -3.7010    3.1810 H   0  0  0  0  0  0  0  0  0  0  0  0
    1.6480   -1.9290    3.0820 H   0  0  0  0  0  0  0  0  0  0  0  0
    4.5960   -2.5900   -2.0570 H   0  0  0  0  0  0  0  0  0  0  0  0
    2.0290    6.3080    1.6650 H   0  0  0  0  0  0  0  0  0  0  0  0
    4.0200    4.3840   -1.5050 H   0  0  0  0  0  0  0  0  0  0  0  0
    3.6340   -3.9690    2.2380 H   0  0  0  0  0  0  0  0  0  0  0  0
   -0.2060   -2.8670    3.9410 H   0  0  0  0  0  0  0  0  0  0  0  0
    3.4460    7.3380    0.3580 H   0  0  0  0  0  0  0  0  0  0  0  0
  1  4  2  0  0  0  0
  1  3  1  0  0  0  0
  1  2  1  0  0  0  0
  2  5  1  0  0  0  0
  2  6  2  0  0  0  0
  3  8  2  0  0  0  0
  3  7  1  0  0  0  0
  4 10  1  0  0  0  0
  4  9  1  0  0  0  0
  5 11  1  0  0  0  0
  6 12  1  0  0  0  0
  6 32  1  0  0  0  0
  7 13  1  0  0  0  0
  7 34  1  0  0  0  0
  7 33  1  0  0  0  0
  9 35  1  0  0  0  0
  9 12  2  0  0  0  0
 10 36  1  0  0  0  0
 11 15  1  0  0  0  0
 11 14  1  0  0  0  0
 11 37  1  0  0  0  0
 12 16  1  0  0  0  0
 13 38  1  0  0  0  0
 13 17  1  0  0  0  0
 13 39  1  0  0  0  0
 14 18  1  0  0  0  0
 15 40  1  0  0  0  0
 15 19  1  0  0  0  0
 15 20  1  0  0  0  0
 16 41  1  0  0  0  0
 17 21  2  0  0  0  0
 17 22  1  0  0  0  0
 18 23  1  0  0  0  0
 18 24  1  0  0  0  0
 18 42  1  0  0  0  0
 19 23  1  0  0  0  0
 19 25  1  0  0  0  0
 19 43  1  0  0  0  0
 20 44  1  0  0  0  0
 21 45  1  0  0  0  0
 21 26  1  0  0  0  0
 22 27  2  0  0  0  0
 22 46  1  0  0  0  0
 23 47  1  0  0  0  0
 23 28  1  0  0  0  0
 24 29  1  0  0  0  0
 24 49  1  0  0  0  0
 24 48  1  0  0  0  0
 25 50  1  0  0  0  0
 26 51  1  0  0  0  0
 26 30  2  0  0  0  0
 27 30  1  0  0  0  0
 27 52  1  0  0  0  0
 28 53  1  0  0  0  0
 29 54  1  0  0  0  0
 30 31  1  0  0  0  0
 31 55  1  0  0  0  0
M  END
