
  ACD/Labs06062114533D

 38 38  0  0  0  0  0  0  0  0  1 V2000
   19.4928   -7.9441    0.1222 C   0  0  0  0  0  0  0  0  0  0  0  0
   18.7762   -6.5857   -0.1231 C   0  0  0  0  0  0  0  0  0  0  0  0
   21.0182   -7.7187    0.3461 C   0  0  0  0  0  0  0  0  0  0  0  0
   18.8835   -8.5877    1.2520 N   0  0  0  0  0  0  0  0  0  0  0  0
   19.4077   -5.7244   -1.2714 C   0  0  0  0  0  0  0  0  0  0  0  0
   21.7188   -6.8883   -0.7850 C   0  0  0  0  0  0  0  0  0  0  0  0
   19.0421   -9.8491    1.6297 C   0  0  0  0  0  0  0  0  0  0  0  0
   20.9139   -5.6288   -1.0775 C   0  0  0  0  0  0  0  0  0  0  0  0
   19.0402   -6.2964   -2.6851 C   0  0  0  0  0  0  0  0  0  0  0  0
   18.7459   -4.2944   -1.2390 C   0  0  0  0  0  0  0  0  0  0  0  0
   23.1747   -6.5320   -0.3012 C   0  0  0  0  0  0  0  0  0  0  0  0
   21.9301   -7.7521   -2.0781 C   0  0  0  0  0  0  0  0  0  0  0  0
   18.3298  -10.3109    2.8003 C   0  0  0  0  0  0  0  0  0  0  0  0
   19.7571  -10.6172    0.9996 O   0  0  0  0  0  0  0  0  0  0  0  0
   21.1704   -4.6925   -0.1114 O   0  0  0  0  0  0  0  0  0  0  0  0
   18.6761  -12.3530    3.2824 I   0  0  0  0  0  0  0  0  0  0  0  0
   19.3348   -8.5838   -0.7488 H   0  0  0  0  0  0  0  0  0  0  0  0
   17.7214   -6.7748   -0.3436 H   0  0  0  0  0  0  0  0  0  0  0  0
   18.8141   -6.0149    0.8096 H   0  0  0  0  0  0  0  0  0  0  0  0
   21.1367   -7.1961    1.2998 H   0  0  0  0  0  0  0  0  0  0  0  0
   21.5175   -8.6864    0.4462 H   0  0  0  0  0  0  0  0  0  0  0  0
   18.2688   -8.0520    1.7795 H   0  0  0  0  0  0  0  0  0  0  0  0
   19.6688   -5.8395   -3.4520 H   0  0  0  0  0  0  0  0  0  0  0  0
   19.1528   -7.3725   -2.7457 H   0  0  0  0  0  0  0  0  0  0  0  0
   17.9965   -6.0997   -2.9433 H   0  0  0  0  0  0  0  0  0  0  0  0
   19.1982   -3.6502   -1.9968 H   0  0  0  0  0  0  0  0  0  0  0  0
   17.6705   -4.3449   -1.4264 H   0  0  0  0  0  0  0  0  0  0  0  0
   18.8732   -3.8113   -0.2674 H   0  0  0  0  0  0  0  0  0  0  0  0
   23.6801   -5.9113   -1.0447 H   0  0  0  0  0  0  0  0  0  0  0  0
   23.1637   -5.9857    0.6442 H   0  0  0  0  0  0  0  0  0  0  0  0
   23.7747   -7.4303   -0.1378 H   0  0  0  0  0  0  0  0  0  0  0  0
   21.0552   -8.3357   -2.3386 H   0  0  0  0  0  0  0  0  0  0  0  0
   22.1828   -7.1088   -2.9233 H   0  0  0  0  0  0  0  0  0  0  0  0
   22.7365   -8.4781   -1.9546 H   0  0  0  0  0  0  0  0  0  0  0  0
   18.6267   -9.7105    3.6622 H   0  0  0  0  0  0  0  0  0  0  0  0
   17.2565  -10.1840    2.6430 H   0  0  0  0  0  0  0  0  0  0  0  0
   22.0909   -4.3963   -0.2722 H   0  0  0  0  0  0  0  0  0  0  0  0
   21.2880   -5.2391   -1.9454 H   0  0  0  0  0  0  0  0  0  0  0  0
  1  3  1  0  0  0  0
  1 17  1  0  0  0  0
  1  2  1  0  0  0  0
  1  4  1  0  0  0  0
  2 18  1  0  0  0  0
  2  5  1  0  0  0  0
  2 19  1  0  0  0  0
  3 21  1  0  0  0  0
  3  6  1  0  0  0  0
  3 20  1  0  0  0  0
  4  7  1  0  0  0  0
  4 22  1  0  0  0  0
  5  8  1  0  0  0  0
  5  9  1  0  0  0  0
  5 10  1  0  0  0  0
  6  8  1  0  0  0  0
  6 12  1  0  0  0  0
  6 11  1  0  0  0  0
  7 14  2  0  0  0  0
  7 13  1  0  0  0  0
  8 38  1  0  0  0  0
  8 15  1  0  0  0  0
  9 25  1  0  0  0  0
  9 24  1  0  0  0  0
  9 23  1  0  0  0  0
 10 26  1  0  0  0  0
 10 27  1  0  0  0  0
 10 28  1  0  0  0  0
 11 31  1  0  0  0  0
 11 29  1  0  0  0  0
 11 30  1  0  0  0  0
 12 34  1  0  0  0  0
 12 32  1  0  0  0  0
 12 33  1  0  0  0  0
 13 16  1  0  0  0  0
 13 35  1  0  0  0  0
 13 36  1  0  0  0  0
 15 37  1  0  0  0  0
M  END
