decoy-877
 OpenBabel06062114513D

 44 47  0  0  0  0  0  0  0  0999 V2000
    1.9860   -0.8290   -0.8950 C   0  0  0  0  0  0  0  0  0  0  0  0
    0.5340   -0.7650   -0.3250 C   0  0  0  0  0  0  0  0  0  0  0  0
    3.0570   -0.4030    0.1590 C   0  0  0  0  0  0  0  0  0  0  0  0
    2.5480   -2.1400   -1.4880 C   0  0  0  0  0  0  0  0  0  0  0  0
    0.1890    0.7150    0.0960 C   0  0  0  0  0  0  0  0  0  0  0  0
   -0.5330   -1.2720   -1.3310 C   0  0  0  0  0  0  0  0  0  0  0  0
    2.7590    1.0800    0.5510 C   0  0  0  0  0  0  0  0  0  0  0  0
    4.3510   -0.6230   -0.6860 C   0  0  0  0  0  0  0  0  0  0  0  0
    3.1290   -1.2880    1.4620 C   0  0  0  0  0  0  0  0  0  0  0  0
    4.0850   -1.9320   -1.4790 C   0  0  0  0  0  0  0  0  0  0  0  0
   -1.2350    0.8440    0.5820 C   0  0  0  0  0  0  0  0  0  0  0  0
    1.2960    1.2860    1.0570 C   0  0  0  0  0  0  0  0  0  0  0  0
   -1.9320   -1.2830   -0.6670 C   0  0  0  0  0  0  0  0  0  0  0  0
    5.5600   -0.6890    0.0700 O   0  0  0  0  0  0  0  0  0  0  0  0
   -2.2290   -0.1100    0.2020 C   0  0  0  0  0  0  0  0  0  0  0  0
   -1.6550    1.9670    1.3420 C   0  0  0  0  0  0  0  0  0  0  0  0
   -3.5570    0.0280    0.6720 C   0  0  0  0  0  0  0  0  0  0  0  0
   -2.9800    2.1010    1.7880 C   0  0  0  0  0  0  0  0  0  0  0  0
   -3.9340    1.1250    1.4650 C   0  0  0  0  0  0  0  0  0  0  0  0
   -5.2090    1.2650    1.9070 O   0  0  0  0  0  0  0  0  0  0  0  0
    2.0030   -0.1110   -1.7290 H   0  0  0  0  0  0  0  0  0  0  0  0
    0.4740   -1.4140    0.5520 H   0  0  0  0  0  0  0  0  0  0  0  0
    0.2340    1.3340   -0.8060 H   0  0  0  0  0  0  0  0  0  0  0  0
    2.2640   -2.9940   -0.8670 H   0  0  0  0  0  0  0  0  0  0  0  0
    2.1780   -2.3080   -2.5030 H   0  0  0  0  0  0  0  0  0  0  0  0
   -0.5490   -0.6240   -2.2130 H   0  0  0  0  0  0  0  0  0  0  0  0
   -0.2950   -2.2850   -1.6630 H   0  0  0  0  0  0  0  0  0  0  0  0
    3.4590    1.4120    1.3220 H   0  0  0  0  0  0  0  0  0  0  0  0
    2.9120    1.7290   -0.3170 H   0  0  0  0  0  0  0  0  0  0  0  0
    4.4720    0.1980   -1.4020 H   0  0  0  0  0  0  0  0  0  0  0  0
    2.2050   -1.2610    2.0350 H   0  0  0  0  0  0  0  0  0  0  0  0
    3.9240   -0.9280    2.1170 H   0  0  0  0  0  0  0  0  0  0  0  0
    3.3390   -2.3330    1.2330 H   0  0  0  0  0  0  0  0  0  0  0  0
    4.5730   -2.7850   -0.9970 H   0  0  0  0  0  0  0  0  0  0  0  0
    4.4740   -1.8450   -2.4970 H   0  0  0  0  0  0  0  0  0  0  0  0
    1.1670    2.3630    1.1720 H   0  0  0  0  0  0  0  0  0  0  0  0
    1.1800    0.8390    2.0460 H   0  0  0  0  0  0  0  0  0  0  0  0
   -2.6760   -1.3440   -1.4660 H   0  0  0  0  0  0  0  0  0  0  0  0
   -2.0240   -2.1850   -0.0560 H   0  0  0  0  0  0  0  0  0  0  0  0
    5.6300    0.1840    0.5110 H   0  0  0  0  0  0  0  0  0  0  0  0
   -1.0040    2.7120    1.5870 H   0  0  0  0  0  0  0  0  0  0  0  0
   -4.2650   -0.6680    0.4240 H   0  0  0  0  0  0  0  0  0  0  0  0
   -3.2500    2.9150    2.3450 H   0  0  0  0  0  0  0  0  0  0  0  0
   -5.6960    0.4830    1.5700 H   0  0  0  0  0  0  0  0  0  0  0  0
  1  2  1  0  0  0  0
  1  3  1  0  0  0  0
  1  4  1  0  0  0  0
  1 21  1  0  0  0  0
  2  5  1  0  0  0  0
  2 22  1  0  0  0  0
  2  6  1  0  0  0  0
  3  7  1  0  0  0  0
  3  9  1  0  0  0  0
  3  8  1  0  0  0  0
  4 10  1  0  0  0  0
  4 24  1  0  0  0  0
  4 25  1  0  0  0  0
  5 23  1  0  0  0  0
  5 11  1  0  0  0  0
  5 12  1  0  0  0  0
  6 13  1  0  0  0  0
  6 26  1  0  0  0  0
  6 27  1  0  0  0  0
  7 12  1  0  0  0  0
  7 28  1  0  0  0  0
  7 29  1  0  0  0  0
  8 14  1  0  0  0  0
  8 10  1  0  0  0  0
  8 30  1  0  0  0  0
  9 31  1  0  0  0  0
  9 32  1  0  0  0  0
  9 33  1  0  0  0  0
 10 34  1  0  0  0  0
 10 35  1  0  0  0  0
 11 16  2  0  0  0  0
 11 15  1  0  0  0  0
 12 36  1  0  0  0  0
 12 37  1  0  0  0  0
 13 39  1  0  0  0  0
 13 15  1  0  0  0  0
 13 38  1  0  0  0  0
 14 40  1  0  0  0  0
 15 17  2  0  0  0  0
 16 41  1  0  0  0  0
 16 18  1  0  0  0  0
 17 19  1  0  0  0  0
 17 42  1  0  0  0  0
 18 43  1  0  0  0  0
 18 19  2  0  0  0  0
 19 20  1  0  0  0  0
 20 44  1  0  0  0  0
M  END
