decoy-913
 OpenBabel06062114513D

 55 58  0  0  0  0  0  0  0  0999 V2000
    0.1600    1.3020   -0.1170 C   0  0  0  0  0  0  0  0  0  0  0  0
    0.0680   -0.2570   -0.0550 C   0  0  0  0  0  0  0  0  0  0  0  0
    1.6080    1.8370   -0.3760 C   0  0  0  0  0  0  0  0  0  0  0  0
   -0.7130    2.0930   -1.1160 C   0  0  0  0  0  0  0  0  0  0  0  0
    0.9840   -0.8030    1.1170 C   0  0  0  0  0  0  0  0  0  0  0  0
   -1.3990   -0.7510    0.1170 C   0  0  0  0  0  0  0  0  0  0  0  0
    1.3250    3.3910   -0.4310 C   0  0  0  0  0  0  0  0  0  0  0  0
    2.4970    1.3290    0.8120 C   0  0  0  0  0  0  0  0  0  0  0  0
    2.2500    1.3400   -1.7310 C   0  0  0  0  0  0  0  0  0  0  0  0
   -0.0170    3.4740   -1.2400 C   0  0  0  0  0  0  0  0  0  0  0  0
    0.8660   -2.3840    1.3000 C   0  0  0  0  0  0  0  0  0  0  0  0
    2.4410   -0.2190    1.0050 C   0  0  0  0  0  0  0  0  0  0  0  0
   -1.4750   -2.2880    0.2980 C   0  0  0  0  0  0  0  0  0  0  0  0
    2.4110    4.2370   -0.9690 C   0  0  0  0  0  0  0  0  0  0  0  0
    0.9930    3.8840    0.8800 O   0  0  0  0  0  0  0  0  0  0  0  0
   -0.5990   -2.6980    1.4040 C   0  0  0  0  0  0  0  0  0  0  0  0
    1.6300   -2.9140    2.5870 C   0  0  0  0  0  0  0  0  0  0  0  0
    1.5040   -3.1600    0.0900 C   0  0  0  0  0  0  0  0  0  0  0  0
    3.3830    4.9120   -0.1200 C   0  0  0  0  0  0  0  0  0  0  0  0
    2.5690    4.3120   -2.1810 O   0  0  0  0  0  0  0  0  0  0  0  0
   -1.1710   -3.1520    2.5460 C   0  0  0  0  0  0  0  0  0  0  0  0
    0.8190   -2.7150    3.8890 C   0  0  0  0  0  0  0  0  0  0  0  0
    4.4160    5.5740   -0.8480 O   0  0  0  0  0  0  0  0  0  0  0  0
   -0.4870   -3.3200    3.7070 C   0  0  0  0  0  0  0  0  0  0  0  0
   -0.9540   -4.0290    4.5880 O   0  0  0  0  0  0  0  0  0  0  0  0
   -0.1690    1.6400    0.8760 H   0  0  0  0  0  0  0  0  0  0  0  0
    0.4120   -0.6530   -1.0100 H   0  0  0  0  0  0  0  0  0  0  0  0
    0.5830   -0.3660    2.0380 H   0  0  0  0  0  0  0  0  0  0  0  0
   -0.7420    1.5820   -2.0820 H   0  0  0  0  0  0  0  0  0  0  0  0
   -1.7380    2.1980   -0.7490 H   0  0  0  0  0  0  0  0  0  0  0  0
   -1.8530   -0.2670    0.9870 H   0  0  0  0  0  0  0  0  0  0  0  0
   -1.9880   -0.4760   -0.7620 H   0  0  0  0  0  0  0  0  0  0  0  0
    3.5350    1.6310    0.6560 H   0  0  0  0  0  0  0  0  0  0  0  0
    2.1710    1.7860    1.7490 H   0  0  0  0  0  0  0  0  0  0  0  0
    1.6820    1.6770   -2.5980 H   0  0  0  0  0  0  0  0  0  0  0  0
    3.2670    1.7240   -1.8310 H   0  0  0  0  0  0  0  0  0  0  0  0
    2.3170    0.2570   -1.7980 H   0  0  0  0  0  0  0  0  0  0  0  0
    0.1520    3.6820   -2.3000 H   0  0  0  0  0  0  0  0  0  0  0  0
   -0.6660    4.2680   -0.8570 H   0  0  0  0  0  0  0  0  0  0  0  0
    2.9990   -0.4300    1.9180 H   0  0  0  0  0  0  0  0  0  0  0  0
    2.9750   -0.7040    0.1880 H   0  0  0  0  0  0  0  0  0  0  0  0
   -2.5250   -2.5540    0.4600 H   0  0  0  0  0  0  0  0  0  0  0  0
   -1.1760   -2.7880   -0.6250 H   0  0  0  0  0  0  0  0  0  0  0  0
    1.8060    3.7880    1.4170 H   0  0  0  0  0  0  0  0  0  0  0  0
    1.8110   -3.9920    2.5000 H   0  0  0  0  0  0  0  0  0  0  0  0
    2.6120   -2.4590    2.7020 H   0  0  0  0  0  0  0  0  0  0  0  0
    1.1600   -2.7970   -0.8760 H   0  0  0  0  0  0  0  0  0  0  0  0
    2.5920   -3.0720    0.1000 H   0  0  0  0  0  0  0  0  0  0  0  0
    1.2580   -4.2240    0.1440 H   0  0  0  0  0  0  0  0  0  0  0  0
    2.8750    5.6620    0.4890 H   0  0  0  0  0  0  0  0  0  0  0  0
    3.8570    4.1850    0.5410 H   0  0  0  0  0  0  0  0  0  0  0  0
   -2.1490   -3.3370    2.5660 H   0  0  0  0  0  0  0  0  0  0  0  0
    1.3530   -3.1650    4.7310 H   0  0  0  0  0  0  0  0  0  0  0  0
    0.6980   -1.6490    4.0960 H   0  0  0  0  0  0  0  0  0  0  0  0
    4.9880    5.9790   -0.1620 H   0  0  0  0  0  0  0  0  0  0  0  0
  1  3  1  0  0  0  0
  1 26  1  0  0  0  0
  1  2  1  0  0  0  0
  1  4  1  0  0  0  0
  2  6  1  0  0  0  0
  2  5  1  0  0  0  0
  2 27  1  0  0  0  0
  3  7  1  0  0  0  0
  3  8  1  0  0  0  0
  3  9  1  0  0  0  0
  4 30  1  0  0  0  0
  4 10  1  0  0  0  0
  4 29  1  0  0  0  0
  5 28  1  0  0  0  0
  5 11  1  0  0  0  0
  5 12  1  0  0  0  0
  6 13  1  0  0  0  0
  6 31  1  0  0  0  0
  6 32  1  0  0  0  0
  7 14  1  0  0  0  0
  7 15  1  0  0  0  0
  7 10  1  0  0  0  0
  8 12  1  0  0  0  0
  8 34  1  0  0  0  0
  8 33  1  0  0  0  0
  9 35  1  0  0  0  0
  9 36  1  0  0  0  0
  9 37  1  0  0  0  0
 10 39  1  0  0  0  0
 10 38  1  0  0  0  0
 11 16  1  0  0  0  0
 11 17  1  0  0  0  0
 11 18  1  0  0  0  0
 12 40  1  0  0  0  0
 12 41  1  0  0  0  0
 13 42  1  0  0  0  0
 13 16  1  0  0  0  0
 13 43  1  0  0  0  0
 14 19  1  0  0  0  0
 14 20  2  0  0  0  0
 15 44  1  0  0  0  0
 16 21  2  0  0  0  0
 17 46  1  0  0  0  0
 17 22  1  0  0  0  0
 17 45  1  0  0  0  0
 18 48  1  0  0  0  0
 18 49  1  0  0  0  0
 18 47  1  0  0  0  0
 19 50  1  0  0  0  0
 19 51  1  0  0  0  0
 19 23  1  0  0  0  0
 21 52  1  0  0  0  0
 21 24  1  0  0  0  0
 22 54  1  0  0  0  0
 22 53  1  0  0  0  0
 22 24  1  0  0  0  0
 23 55  1  0  0  0  0
 24 25  2  0  0  0  0
M  END
