decoy-48
 OpenBabel06062114503D

 76 80  0  0  0  0  0  0  0  0999 V2000
   -1.4540    1.2140   -0.4180 P   0  0  0  0  0  0  0  0  0  0  0  0
   -1.1800   -0.4360   -0.2570 C   0  0  0  0  0  0  0  0  0  0  0  0
   -0.0440    1.9880   -0.5280 C   0  0  0  0  0  0  0  0  0  0  0  0
   -2.1360    1.7190    0.9510 C   0  0  0  0  0  0  0  0  0  0  0  0
   -2.4760   -1.2710   -0.2620 C   0  0  0  0  0  0  0  0  0  0  0  0
   -0.3970   -1.0760   -1.4270 C   0  0  0  0  0  0  0  0  0  0  0  0
    0.0340    3.0470   -1.4650 C   0  0  0  0  0  0  0  0  0  0  0  0
    1.1200    1.6660    0.2160 C   0  0  0  0  0  0  0  0  0  0  0  0
   -1.5640    1.5780    2.2410 C   0  0  0  0  0  0  0  0  0  0  0  0
   -3.4010    2.3460    0.8450 C   0  0  0  0  0  0  0  0  0  0  0  0
   -2.0160   -2.6910   -0.6760 C   0  0  0  0  0  0  0  0  0  0  0  0
   -0.9010   -2.4110   -1.5430 N   0  0  0  0  0  0  0  0  0  0  0  0
    1.2270    3.7730   -1.6390 C   0  0  0  0  0  0  0  0  0  0  0  0
    2.3130    2.3920    0.0410 C   0  0  0  0  0  0  0  0  0  0  0  0
   -2.2260    2.0680    3.3810 C   0  0  0  0  0  0  0  0  0  0  0  0
   -4.0690    2.8230    1.9880 C   0  0  0  0  0  0  0  0  0  0  0  0
   -1.5850   -3.6490    0.4860 C   0  0  0  0  0  0  0  0  0  0  0  0
   -0.3980   -3.2920   -2.4530 C   0  0  0  0  0  0  0  0  0  0  0  0
    2.3670    3.4480   -0.8850 C   0  0  0  0  0  0  0  0  0  0  0  0
   -3.4810    2.6880    3.2560 C   0  0  0  0  0  0  0  0  0  0  0  0
   -2.6380   -4.1900    1.6800 P   0  0  0  0  0  0  0  0  0  0  0  0
    0.6540   -2.9310   -3.2400 O   0  0  0  0  0  0  0  0  0  0  0  0
   -0.9450   -4.5230   -2.5940 O   0  0  0  0  0  0  0  0  0  0  0  0
   -3.9090   -4.8530    0.9400 C   0  0  0  0  0  0  0  0  0  0  0  0
   -3.0210   -2.9880    2.6940 C   0  0  0  0  0  0  0  0  0  0  0  0
    1.3840   -3.6240   -4.2720 C   0  0  0  0  0  0  0  0  0  0  0  0
   -4.0750   -6.2530    1.0640 C   0  0  0  0  0  0  0  0  0  0  0  0
   -4.8610   -4.1290    0.1790 C   0  0  0  0  0  0  0  0  0  0  0  0
   -4.3510   -2.6070    3.0120 C   0  0  0  0  0  0  0  0  0  0  0  0
   -1.9700   -2.3420    3.3950 C   0  0  0  0  0  0  0  0  0  0  0  0
    2.0710   -4.8960   -3.6920 C   0  0  0  0  0  0  0  0  0  0  0  0
    0.4420   -3.9850   -5.4580 C   0  0  0  0  0  0  0  0  0  0  0  0
    2.4700   -2.6190   -4.7550 C   0  0  0  0  0  0  0  0  0  0  0  0
   -5.1520   -6.9100    0.4390 C   0  0  0  0  0  0  0  0  0  0  0  0
   -5.9380   -4.7850   -0.4450 C   0  0  0  0  0  0  0  0  0  0  0  0
   -4.6140   -1.5770    3.9340 C   0  0  0  0  0  0  0  0  0  0  0  0
   -2.2320   -1.3180    4.3230 C   0  0  0  0  0  0  0  0  0  0  0  0
   -6.0820   -6.1770   -0.3170 C   0  0  0  0  0  0  0  0  0  0  0  0
   -3.5540   -0.9280    4.5860 C   0  0  0  0  0  0  0  0  0  0  0  0
   -0.6480   -0.6460    0.6750 H   0  0  0  0  0  0  0  0  0  0  0  0
   -2.9750   -1.2390    0.7040 H   0  0  0  0  0  0  0  0  0  0  0  0
   -3.1780   -0.8950   -1.0150 H   0  0  0  0  0  0  0  0  0  0  0  0
   -0.5680   -0.5480   -2.3710 H   0  0  0  0  0  0  0  0  0  0  0  0
    0.6750   -1.0790   -1.2070 H   0  0  0  0  0  0  0  0  0  0  0  0
   -0.7760    3.3130   -2.0340 H   0  0  0  0  0  0  0  0  0  0  0  0
    1.1280    0.8940    0.8820 H   0  0  0  0  0  0  0  0  0  0  0  0
   -0.6640    1.1170    2.3740 H   0  0  0  0  0  0  0  0  0  0  0  0
   -3.8580    2.4670   -0.0640 H   0  0  0  0  0  0  0  0  0  0  0  0
   -2.8070   -3.1600   -1.2670 H   0  0  0  0  0  0  0  0  0  0  0  0
    1.2660    4.5380   -2.3170 H   0  0  0  0  0  0  0  0  0  0  0  0
    3.1450    2.1480    0.5840 H   0  0  0  0  0  0  0  0  0  0  0  0
   -1.7990    1.9660    4.3040 H   0  0  0  0  0  0  0  0  0  0  0  0
   -4.9830    3.2730    1.8960 H   0  0  0  0  0  0  0  0  0  0  0  0
   -1.2130   -4.5640    0.0240 H   0  0  0  0  0  0  0  0  0  0  0  0
   -0.7220   -3.2060    0.9840 H   0  0  0  0  0  0  0  0  0  0  0  0
    3.2340    3.9740   -1.0130 H   0  0  0  0  0  0  0  0  0  0  0  0
   -3.9650    3.0370    4.0860 H   0  0  0  0  0  0  0  0  0  0  0  0
   -3.4140   -6.8190    1.6050 H   0  0  0  0  0  0  0  0  0  0  0  0
   -4.7960   -3.1130    0.0870 H   0  0  0  0  0  0  0  0  0  0  0  0
   -5.1550   -3.0810    2.6010 H   0  0  0  0  0  0  0  0  0  0  0  0
   -0.9930   -2.6110    3.2530 H   0  0  0  0  0  0  0  0  0  0  0  0
    2.7080   -5.3660   -4.4440 H   0  0  0  0  0  0  0  0  0  0  0  0
    2.6860   -4.6350   -2.8290 H   0  0  0  0  0  0  0  0  0  0  0  0
    1.3280   -5.6270   -3.3710 H   0  0  0  0  0  0  0  0  0  0  0  0
    1.0110   -4.4150   -6.2850 H   0  0  0  0  0  0  0  0  0  0  0  0
   -0.3100   -4.7120   -5.1500 H   0  0  0  0  0  0  0  0  0  0  0  0
   -0.0740   -3.0930   -5.8180 H   0  0  0  0  0  0  0  0  0  0  0  0
    3.0830   -3.0570   -5.5460 H   0  0  0  0  0  0  0  0  0  0  0  0
    2.0040   -1.7110   -5.1440 H   0  0  0  0  0  0  0  0  0  0  0  0
    3.1240   -2.3360   -3.9280 H   0  0  0  0  0  0  0  0  0  0  0  0
   -5.2580   -7.9220    0.5340 H   0  0  0  0  0  0  0  0  0  0  0  0
   -6.6190   -4.2490   -0.9880 H   0  0  0  0  0  0  0  0  0  0  0  0
   -5.5790   -1.3100    4.1420 H   0  0  0  0  0  0  0  0  0  0  0  0
   -1.4590   -0.8610    4.8130 H   0  0  0  0  0  0  0  0  0  0  0  0
   -6.8650   -6.6540   -0.7700 H   0  0  0  0  0  0  0  0  0  0  0  0
   -3.7460   -0.1860    5.2630 H   0  0  0  0  0  0  0  0  0  0  0  0
  1  2  1  0  0  0  0
  1  4  1  0  0  0  0
  1  3  1  0  0  0  0
  2 40  1  0  0  0  0
  2  5  1  0  0  0  0
  2  6  1  0  0  0  0
  3  8  2  0  0  0  0
  3  7  1  0  0  0  0
  4  9  2  0  0  0  0
  4 10  1  0  0  0  0
  5 41  1  0  0  0  0
  5 11  1  0  0  0  0
  5 42  1  0  0  0  0
  6 44  1  0  0  0  0
  6 12  1  0  0  0  0
  6 43  1  0  0  0  0
  7 13  2  0  0  0  0
  7 45  1  0  0  0  0
  8 46  1  0  0  0  0
  8 14  1  0  0  0  0
  9 47  1  0  0  0  0
  9 15  1  0  0  0  0
 10 16  2  0  0  0  0
 10 48  1  0  0  0  0
 11 49  1  0  0  0  0
 11 17  1  0  0  0  0
 11 12  1  0  0  0  0
 12 18  1  0  0  0  0
 13 19  1  0  0  0  0
 13 50  1  0  0  0  0
 14 51  1  0  0  0  0
 14 19  2  0  0  0  0
 15 52  1  0  0  0  0
 15 20  2  0  0  0  0
 16 20  1  0  0  0  0
 16 53  1  0  0  0  0
 17 55  1  0  0  0  0
 17 21  1  0  0  0  0
 17 54  1  0  0  0  0
 18 22  1  0  0  0  0
 18 23  2  0  0  0  0
 19 56  1  0  0  0  0
 20 57  1  0  0  0  0
 21 25  1  0  0  0  0
 21 24  1  0  0  0  0
 22 26  1  0  0  0  0
 24 27  2  0  0  0  0
 24 28  1  0  0  0  0
 25 29  2  0  0  0  0
 25 30  1  0  0  0  0
 26 31  1  0  0  0  0
 26 32  1  0  0  0  0
 26 33  1  0  0  0  0
 27 58  1  0  0  0  0
 27 34  1  0  0  0  0
 28 35  2  0  0  0  0
 28 59  1  0  0  0  0
 29 36  1  0  0  0  0
 29 60  1  0  0  0  0
 30 37  2  0  0  0  0
 30 61  1  0  0  0  0
 31 64  1  0  0  0  0
 31 63  1  0  0  0  0
 31 62  1  0  0  0  0
 32 66  1  0  0  0  0
 32 65  1  0  0  0  0
 32 67  1  0  0  0  0
 33 70  1  0  0  0  0
 33 68  1  0  0  0  0
 33 69  1  0  0  0  0
 34 71  1  0  0  0  0
 34 38  2  0  0  0  0
 35 38  1  0  0  0  0
 35 72  1  0  0  0  0
 36 73  1  0  0  0  0
 36 39  2  0  0  0  0
 37 39  1  0  0  0  0
 37 74  1  0  0  0  0
 38 75  1  0  0  0  0
 39 76  1  0  0  0  0
M  END
