decoy-444
 OpenBabel06062114513D

 26 25  0  0  0  0  0  0  0  0999 V2000
    0.0040    1.5360    0.0090 C   0  0  0  0  0  0  0  0  0  0  0  0
   -0.0230   -0.0160    0.0010 C   0  0  0  0  0  0  0  0  0  0  0  0
    1.4470    2.1070   -0.0010 C   0  0  0  0  0  0  0  0  0  0  0  0
   -1.4650   -0.5880    0.0120 C   0  0  0  0  0  0  0  0  0  0  0  0
    1.4720    3.6580    0.0070 C   0  0  0  0  0  0  0  0  0  0  0  0
   -1.4910   -2.1390    0.0040 C   0  0  0  0  0  0  0  0  0  0  0  0
    2.9070    4.2300   -0.0040 C   0  0  0  0  0  0  0  0  0  0  0  0
   -2.9260   -2.7100    0.0140 C   0  0  0  0  0  0  0  0  0  0  0  0
    2.8510    6.3510    0.0080 I   0  0  0  0  0  0  0  0  0  0  0  0
   -2.8700   -4.8320    0.0020 I   0  0  0  0  0  0  0  0  0  0  0  0
   -0.5320    1.9060   -0.8690 H   0  0  0  0  0  0  0  0  0  0  0  0
   -0.5150    1.8960    0.9020 H   0  0  0  0  0  0  0  0  0  0  0  0
    0.4960   -0.3760   -0.8920 H   0  0  0  0  0  0  0  0  0  0  0  0
    0.5130   -0.3860    0.8800 H   0  0  0  0  0  0  0  0  0  0  0  0
    1.9830    1.7380    0.8770 H   0  0  0  0  0  0  0  0  0  0  0  0
    1.9660    1.7480   -0.8940 H   0  0  0  0  0  0  0  0  0  0  0  0
   -1.9850   -0.2280    0.9050 H   0  0  0  0  0  0  0  0  0  0  0  0
   -2.0010   -0.2180   -0.8670 H   0  0  0  0  0  0  0  0  0  0  0  0
    0.9410    4.0340   -0.8720 H   0  0  0  0  0  0  0  0  0  0  0  0
    0.9580    4.0240    0.8990 H   0  0  0  0  0  0  0  0  0  0  0  0
   -0.9770   -2.5040   -0.8890 H   0  0  0  0  0  0  0  0  0  0  0  0
   -0.9600   -2.5140    0.8820 H   0  0  0  0  0  0  0  0  0  0  0  0
    3.4560    3.8930    0.8780 H   0  0  0  0  0  0  0  0  0  0  0  0
    3.4390    3.9030   -0.8990 H   0  0  0  0  0  0  0  0  0  0  0  0
   -3.4580   -2.3830    0.9100 H   0  0  0  0  0  0  0  0  0  0  0  0
   -3.4750   -2.3730   -0.8670 H   0  0  0  0  0  0  0  0  0  0  0  0
  1 12  1  0  0  0  0
  1  2  1  0  0  0  0
  1  3  1  0  0  0  0
  1 11  1  0  0  0  0
  2  4  1  0  0  0  0
  2 14  1  0  0  0  0
  2 13  1  0  0  0  0
  3  5  1  0  0  0  0
  3 15  1  0  0  0  0
  3 16  1  0  0  0  0
  4 17  1  0  0  0  0
  4  6  1  0  0  0  0
  4 18  1  0  0  0  0
  5 20  1  0  0  0  0
  5  7  1  0  0  0  0
  5 19  1  0  0  0  0
  6  8  1  0  0  0  0
  6 22  1  0  0  0  0
  6 21  1  0  0  0  0
  7  9  1  0  0  0  0
  7 23  1  0  0  0  0
  7 24  1  0  0  0  0
  8 25  1  0  0  0  0
  8 10  1  0  0  0  0
  8 26  1  0  0  0  0
M  END
