decoy-623
 OpenBabel06062114513D

 38 38  0  0  0  0  0  0  0  0999 V2000
    0.1260    1.4450    0.3000 C   0  0  0  0  0  0  0  0  0  0  0  0
   -0.2750    0.2440   -0.3930 O   0  0  0  0  0  0  0  0  0  0  0  0
    1.6760    1.5210    0.3890 C   0  0  0  0  0  0  0  0  0  0  0  0
   -0.6080    1.4170    1.9580 S   0  0  0  0  0  0  0  0  0  0  0  0
    0.2020    0.1250   -1.7510 C   0  0  0  0  0  0  0  0  0  0  0  0
    2.3030    1.3830   -1.0250 C   0  0  0  0  0  0  0  0  0  0  0  0
    2.0890    2.7570    0.9710 O   0  0  0  0  0  0  0  0  0  0  0  0
   -2.2490    1.4020    1.4730 C   0  0  0  0  0  0  0  0  0  0  0  0
    1.7610    0.1320   -1.7670 C   0  0  0  0  0  0  0  0  0  0  0  0
   -0.4010   -1.1690   -2.3480 C   0  0  0  0  0  0  0  0  0  0  0  0
    3.7240    1.2980   -0.9240 O   0  0  0  0  0  0  0  0  0  0  0  0
   -2.7690    0.2380    1.3240 N   0  0  0  0  0  0  0  0  0  0  0  0
   -2.9650    2.6520    1.2480 C   0  0  0  0  0  0  0  0  0  0  0  0
    2.2610    0.1300   -3.1040 O   0  0  0  0  0  0  0  0  0  0  0  0
   -1.8230   -1.1150   -2.3140 O   0  0  0  0  0  0  0  0  0  0  0  0
   -3.9530   -0.0070    0.9400 O   0  0  0  0  0  0  0  0  0  0  0  0
   -3.9840    2.8810    2.2610 C   0  0  0  0  0  0  0  0  0  0  0  0
   -4.4860   -1.6050    0.8070 S   0  0  0  0  0  0  0  0  0  0  0  0
   -3.9680    3.9050    3.1230 C   0  0  0  0  0  0  0  0  0  0  0  0
   -4.9350   -2.2300    2.3110 O   0  0  0  0  0  0  0  0  0  0  0  0
   -5.8240   -1.6120   -0.2260 O   0  0  0  0  0  0  0  0  0  0  0  0
   -3.3010   -2.5540    0.0630 O   0  0  0  0  0  0  0  0  0  0  0  0
   -0.2510    2.3270   -0.2270 H   0  0  0  0  0  0  0  0  0  0  0  0
    2.0430    0.7050    1.0190 H   0  0  0  0  0  0  0  0  0  0  0  0
   -0.1680    0.9690   -2.3420 H   0  0  0  0  0  0  0  0  0  0  0  0
    2.0640    2.2760   -1.6110 H   0  0  0  0  0  0  0  0  0  0  0  0
    1.7130    2.7550    1.8760 H   0  0  0  0  0  0  0  0  0  0  0  0
    2.1310   -0.7660   -1.2630 H   0  0  0  0  0  0  0  0  0  0  0  0
   -0.0900   -1.2900   -3.3880 H   0  0  0  0  0  0  0  0  0  0  0  0
   -0.0700   -2.0400   -1.7780 H   0  0  0  0  0  0  0  0  0  0  0  0
    4.0010    2.1370   -0.4980 H   0  0  0  0  0  0  0  0  0  0  0  0
   -2.2570    3.4860    1.2190 H   0  0  0  0  0  0  0  0  0  0  0  0
   -3.4440    2.6180    0.2670 H   0  0  0  0  0  0  0  0  0  0  0  0
    1.9680   -0.7220   -3.4890 H   0  0  0  0  0  0  0  0  0  0  0  0
   -2.1170   -1.9640   -2.7060 H   0  0  0  0  0  0  0  0  0  0  0  0
   -4.7460    2.2430    2.3140 H   0  0  0  0  0  0  0  0  0  0  0  0
   -4.6960    4.0080    3.7890 H   0  0  0  0  0  0  0  0  0  0  0  0
   -3.2340    4.5730    3.1180 H   0  0  0  0  0  0  0  0  0  0  0  0
  1  3  1  0  0  0  0
  1  4  1  0  0  0  0
  1  2  1  0  0  0  0
  1 23  1  0  0  0  0
  2  5  1  0  0  0  0
  3  6  1  0  0  0  0
  3  7  1  0  0  0  0
  3 24  1  0  0  0  0
  4  8  1  0  0  0  0
  5  9  1  0  0  0  0
  5 10  1  0  0  0  0
  5 25  1  0  0  0  0
  6  9  1  0  0  0  0
  6 11  1  0  0  0  0
  6 26  1  0  0  0  0
  7 27  1  0  0  0  0
  8 12  2  0  0  0  0
  8 13  1  0  0  0  0
  9 28  1  0  0  0  0
  9 14  1  0  0  0  0
 10 15  1  0  0  0  0
 10 30  1  0  0  0  0
 10 29  1  0  0  0  0
 11 31  1  0  0  0  0
 12 16  1  0  0  0  0
 13 17  1  0  0  0  0
 13 32  1  0  0  0  0
 13 33  1  0  0  0  0
 14 34  1  0  0  0  0
 15 35  1  0  0  0  0
 16 18  1  0  0  0  0
 17 36  1  0  0  0  0
 17 19  2  0  0  0  0
 18 20  1  0  0  0  0
 18 21  2  0  0  0  0
 18 22  2  0  0  0  0
 19 37  1  0  0  0  0
 19 38  1  0  0  0  0
M  END
