
  ACD/Labs06062116203D

 42 44  0  0  0  0  0  0  0  0  1 V2000
   20.4450   -7.1741    0.0330 C   0  0  0  0  0  0  0  0  0  0  0  0
   20.5100   -8.5681    0.0600 C   0  0  0  0  0  0  0  0  0  0  0  0
   21.6970   -6.5601   -0.0420 C   0  0  0  0  0  0  0  0  0  0  0  0
   19.2710   -6.4771    0.0730 C   0  0  0  0  0  0  0  0  0  0  0  0
   20.4710   -9.3131   -1.1410 C   0  0  0  0  0  0  0  0  0  0  0  0
   20.5960   -9.2551    1.2900 C   0  0  0  0  0  0  0  0  0  0  0  0
   22.3930   -6.2041    1.1360 C   0  0  0  0  0  0  0  0  0  0  0  0
   22.2800   -6.2701   -1.2980 C   0  0  0  0  0  0  0  0  0  0  0  0
   18.0310   -7.1171    0.1480 C   0  0  0  0  0  0  0  0  0  0  0  0
   19.2350   -5.0811    0.0430 C   0  0  0  0  0  0  0  0  0  0  0  0
   20.5270  -10.7281   -1.1300 C   0  0  0  0  0  0  0  0  0  0  0  0
   20.6520  -10.6591    1.3170 C   0  0  0  0  0  0  0  0  0  0  0  0
   23.6510   -5.5771    1.0600 C   0  0  0  0  0  0  0  0  0  0  0  0
   23.5380   -5.6441   -1.3720 C   0  0  0  0  0  0  0  0  0  0  0  0
   16.8720   -6.4281    0.1900 C   0  0  0  0  0  0  0  0  0  0  0  0
   18.0740   -4.3941    0.0850 C   0  0  0  0  0  0  0  0  0  0  0  0
   20.6190  -11.3981    0.1180 C   0  0  0  0  0  0  0  0  0  0  0  0
   20.4870  -11.4861   -2.4060 C   0  0  0  0  0  0  0  0  0  0  0  0
   24.2280   -5.2961   -0.1940 C   0  0  0  0  0  0  0  0  0  0  0  0
   16.8820   -5.0601    0.1590 C   0  0  0  0  0  0  0  0  0  0  0  0
   20.6760  -12.7421    0.2000 N   0  0  0  0  0  0  0  0  0  0  0  0
   25.4290   -4.6961   -0.2660 N   0  0  0  0  0  0  0  0  0  0  0  0
   15.7840   -4.4011    0.1990 N   0  0  0  0  0  0  0  0  0  0  0  0
   20.3980   -8.8171   -2.0330 H   0  0  0  0  0  0  0  0  0  0  0  0
   20.6160   -8.7401    2.1740 H   0  0  0  0  0  0  0  0  0  0  0  0
   21.9880   -6.3941    2.0570 H   0  0  0  0  0  0  0  0  0  0  0  0
   21.7930   -6.5101   -2.1650 H   0  0  0  0  0  0  0  0  0  0  0  0
   17.9670   -8.1091    0.1730 H   0  0  0  0  0  0  0  0  0  0  0  0
   20.0730   -4.5481   -0.0110 H   0  0  0  0  0  0  0  0  0  0  0  0
   20.7150  -11.1381    2.2190 H   0  0  0  0  0  0  0  0  0  0  0  0
   24.1410   -5.3261    1.9230 H   0  0  0  0  0  0  0  0  0  0  0  0
   23.9470   -5.4421   -2.2880 H   0  0  0  0  0  0  0  0  0  0  0  0
   16.0100   -6.9231    0.2430 H   0  0  0  0  0  0  0  0  0  0  0  0
   18.0940   -3.3981    0.0610 H   0  0  0  0  0  0  0  0  0  0  0  0
   20.4160  -10.8321   -3.2770 H   0  0  0  0  0  0  0  0  0  0  0  0
   21.3950  -12.0841   -2.5060 H   0  0  0  0  0  0  0  0  0  0  0  0
   19.6220  -12.1511   -2.4110 H   0  0  0  0  0  0  0  0  0  0  0  0
   20.6540  -13.2831   -0.6050 H   0  0  0  0  0  0  0  0  0  0  0  0
   20.7380  -13.1741    1.0670 H   0  0  0  0  0  0  0  0  0  0  0  0
   25.9030   -4.4561    0.5460 H   0  0  0  0  0  0  0  0  0  0  0  0
   25.8260   -4.5031   -1.1300 H   0  0  0  0  0  0  0  0  0  0  0  0
   14.9630   -4.8471    0.2500 H   0  0  0  0  0  0  0  0  0  0  0  0
  1  3  1  0  0  0  0
  1  2  1  0  0  0  0
  1  4  2  0  0  0  0
  2  6  2  0  0  0  0
  2  5  1  0  0  0  0
  3  7  2  0  0  0  0
  3  8  1  0  0  0  0
  4  9  1  0  0  0  0
  4 10  1  0  0  0  0
  5 11  2  0  0  0  0
  5 24  1  0  0  0  0
  6 12  1  0  0  0  0
  6 25  1  0  0  0  0
  7 26  1  0  0  0  0
  7 13  1  0  0  0  0
  8 14  2  0  0  0  0
  8 27  1  0  0  0  0
  9 28  1  0  0  0  0
  9 15  2  0  0  0  0
 10 16  2  0  0  0  0
 10 29  1  0  0  0  0
 11 17  1  0  0  0  0
 11 18  1  0  0  0  0
 12 30  1  0  0  0  0
 12 17  2  0  0  0  0
 13 31  1  0  0  0  0
 13 19  2  0  0  0  0
 14 19  1  0  0  0  0
 14 32  1  0  0  0  0
 15 33  1  0  0  0  0
 15 20  1  0  0  0  0
 16 20  1  0  0  0  0
 16 34  1  0  0  0  0
 17 21  1  0  0  0  0
 18 35  1  0  0  0  0
 18 36  1  0  0  0  0
 18 37  1  0  0  0  0
 19 22  1  0  0  0  0
 20 23  2  0  0  0  0
 21 39  1  0  0  0  0
 21 38  1  0  0  0  0
 22 40  1  0  0  0  0
 22 41  1  0  0  0  0
 23 42  1  0  0  0  0
M  END
