decoy-951
 OpenBabel06062114513D

 51 53  0  0  0  0  0  0  0  0999 V2000
    0.0830    1.2750   -0.0900 C   0  0  0  0  0  0  0  0  0  0  0  0
   -0.3150   -0.0900    0.4110 C   0  0  0  0  0  0  0  0  0  0  0  0
    1.4000    1.7630    0.4490 C   0  0  0  0  0  0  0  0  0  0  0  0
    0.0550    1.4980   -1.5780 C   0  0  0  0  0  0  0  0  0  0  0  0
   -0.3830   -0.3130    1.8060 C   0  0  0  0  0  0  0  0  0  0  0  0
   -0.6750   -1.1710   -0.4260 C   0  0  0  0  0  0  0  0  0  0  0  0
    2.5240    0.9170    0.5760 C   0  0  0  0  0  0  0  0  0  0  0  0
    1.5580    3.1140    0.8260 C   0  0  0  0  0  0  0  0  0  0  0  0
   -0.9000    2.3710   -2.1610 C   0  0  0  0  0  0  0  0  0  0  0  0
    0.9830    0.8620   -2.4430 C   0  0  0  0  0  0  0  0  0  0  0  0
   -0.7560   -1.5620    2.3340 C   0  0  0  0  0  0  0  0  0  0  0  0
   -1.0490   -2.4180    0.1080 C   0  0  0  0  0  0  0  0  0  0  0  0
    3.7480    1.4020    1.0700 C   0  0  0  0  0  0  0  0  0  0  0  0
    2.7860    3.5930    1.3190 C   0  0  0  0  0  0  0  0  0  0  0  0
   -0.9280    2.5960   -3.5490 C   0  0  0  0  0  0  0  0  0  0  0  0
    0.9560    1.0850   -3.8320 C   0  0  0  0  0  0  0  0  0  0  0  0
   -1.1000   -2.6690    1.5080 C   0  0  0  0  0  0  0  0  0  0  0  0
    3.9310    2.7590    1.4630 C   0  0  0  0  0  0  0  0  0  0  0  0
    0.0000    1.9540   -4.3860 C   0  0  0  0  0  0  0  0  0  0  0  0
   -1.4650   -3.9020    2.0310 N   0  0  0  0  0  0  0  0  0  0  0  0
    5.1410    3.2350    1.9510 N   0  0  0  0  0  0  0  0  0  0  0  0
   -1.8140   -5.0190    1.1700 C   0  0  0  0  0  0  0  0  0  0  0  0
   -1.5130   -4.1350    3.4640 C   0  0  0  0  0  0  0  0  0  0  0  0
    5.3070    4.6230    2.3470 C   0  0  0  0  0  0  0  0  0  0  0  0
    6.2980    2.3670    2.0890 C   0  0  0  0  0  0  0  0  0  0  0  0
   -0.6890    1.9180    0.3470 H   0  0  0  0  0  0  0  0  0  0  0  0
   -0.1550    0.4430    2.4570 H   0  0  0  0  0  0  0  0  0  0  0  0
   -0.6810   -1.0670   -1.4410 H   0  0  0  0  0  0  0  0  0  0  0  0
    2.4600   -0.0680    0.3090 H   0  0  0  0  0  0  0  0  0  0  0  0
    0.7760    3.7670    0.7390 H   0  0  0  0  0  0  0  0  0  0  0  0
   -1.5870    2.8530   -1.5770 H   0  0  0  0  0  0  0  0  0  0  0  0
    1.6810    0.2180   -2.0690 H   0  0  0  0  0  0  0  0  0  0  0  0
   -0.7720   -1.6380    3.3520 H   0  0  0  0  0  0  0  0  0  0  0  0
   -1.2890   -3.1460   -0.5650 H   0  0  0  0  0  0  0  0  0  0  0  0
    4.5110    0.7280    1.1330 H   0  0  0  0  0  0  0  0  0  0  0  0
    2.8190    4.5810    1.5700 H   0  0  0  0  0  0  0  0  0  0  0  0
   -1.6250    3.2280   -3.9510 H   0  0  0  0  0  0  0  0  0  0  0  0
    1.6300    0.6150   -4.4400 H   0  0  0  0  0  0  0  0  0  0  0  0
   -0.0210    2.1170   -5.3950 H   0  0  0  0  0  0  0  0  0  0  0  0
   -2.0790   -5.9340    1.7030 H   0  0  0  0  0  0  0  0  0  0  0  0
   -2.6750   -4.7550    0.5520 H   0  0  0  0  0  0  0  0  0  0  0  0
   -0.9690   -5.2660    0.5230 H   0  0  0  0  0  0  0  0  0  0  0  0
   -0.5260   -3.9660    3.9000 H   0  0  0  0  0  0  0  0  0  0  0  0
   -2.2310   -3.4550    3.9260 H   0  0  0  0  0  0  0  0  0  0  0  0
   -1.8120   -5.1460    3.7470 H   0  0  0  0  0  0  0  0  0  0  0  0
    6.3040    4.8710    2.7140 H   0  0  0  0  0  0  0  0  0  0  0  0
    5.1150    5.2770    1.4930 H   0  0  0  0  0  0  0  0  0  0  0  0
    4.6070    4.8650    3.1490 H   0  0  0  0  0  0  0  0  0  0  0  0
    6.5730    1.9590    1.1150 H   0  0  0  0  0  0  0  0  0  0  0  0
    7.1870    2.8610    2.4850 H   0  0  0  0  0  0  0  0  0  0  0  0
    6.0660    1.5470    2.7710 H   0  0  0  0  0  0  0  0  0  0  0  0
  1 26  1  0  0  0  0
  1  2  1  0  0  0  0
  1  3  1  0  0  0  0
  1  4  1  0  0  0  0
  2  5  2  0  0  0  0
  2  6  1  0  0  0  0
  3  7  2  0  0  0  0
  3  8  1  0  0  0  0
  4  9  2  0  0  0  0
  4 10  1  0  0  0  0
  5 11  1  0  0  0  0
  5 27  1  0  0  0  0
  6 12  2  0  0  0  0
  6 28  1  0  0  0  0
  7 13  1  0  0  0  0
  7 29  1  0  0  0  0
  8 14  2  0  0  0  0
  8 30  1  0  0  0  0
  9 31  1  0  0  0  0
  9 15  1  0  0  0  0
 10 32  1  0  0  0  0
 10 16  2  0  0  0  0
 11 33  1  0  0  0  0
 11 17  2  0  0  0  0
 12 17  1  0  0  0  0
 12 34  1  0  0  0  0
 13 35  1  0  0  0  0
 13 18  2  0  0  0  0
 14 18  1  0  0  0  0
 14 36  1  0  0  0  0
 15 19  2  0  0  0  0
 15 37  1  0  0  0  0
 16 19  1  0  0  0  0
 16 38  1  0  0  0  0
 17 20  1  0  0  0  0
 18 21  1  0  0  0  0
 19 39  1  0  0  0  0
 20 23  1  0  0  0  0
 20 22  1  0  0  0  0
 21 25  1  0  0  0  0
 21 24  1  0  0  0  0
 22 40  1  0  0  0  0
 22 41  1  0  0  0  0
 22 42  1  0  0  0  0
 23 45  1  0  0  0  0
 23 43  1  0  0  0  0
 23 44  1  0  0  0  0
 24 46  1  0  0  0  0
 24 48  1  0  0  0  0
 24 47  1  0  0  0  0
 25 50  1  0  0  0  0
 25 51  1  0  0  0  0
 25 49  1  0  0  0  0
M  END
