decoy-51
 OpenBabel06062114503D

 60 64  0  0  0  0  0  0  0  0999 V2000
   -1.0910    2.4080    2.2470 C   0  0  0  0  0  0  0  0  0  0  0  0
   -0.9260    1.0070    2.5090 C   0  0  0  0  0  0  0  0  0  0  0  0
    0.0210    3.1940    1.8250 C   0  0  0  0  0  0  0  0  0  0  0  0
   -2.3600    2.9770    2.4700 C   0  0  0  0  0  0  0  0  0  0  0  0
    0.3430    0.3860    2.3170 C   0  0  0  0  0  0  0  0  0  0  0  0
   -2.0390    0.2870    2.9880 C   0  0  0  0  0  0  0  0  0  0  0  0
   -0.1310    4.5380    1.6430 N   0  0  0  0  0  0  0  0  0  0  0  0
    1.2530    2.5440    1.5940 C   0  0  0  0  0  0  0  0  0  0  0  0
   -3.2420    2.3580    3.3550 C   0  0  0  0  0  0  0  0  0  0  0  0
   -2.8400    3.7160    1.6200 O   0  0  0  0  0  0  0  0  0  0  0  0
    0.5080   -0.9240    2.6570 N   0  0  0  0  0  0  0  0  0  0  0  0
    1.4130    1.1760    1.8440 C   0  0  0  0  0  0  0  0  0  0  0  0
   -3.0770    0.9700    3.6220 C   0  0  0  0  0  0  0  0  0  0  0  0
   -2.2830   -0.8220    2.5300 O   0  0  0  0  0  0  0  0  0  0  0  0
    0.7900    5.4920    1.3160 C   0  0  0  0  0  0  0  0  0  0  0  0
   -4.2820    3.0720    3.9940 C   0  0  0  0  0  0  0  0  0  0  0  0
    1.5880   -1.7470    2.5130 C   0  0  0  0  0  0  0  0  0  0  0  0
   -3.9550    0.3260    4.5250 C   0  0  0  0  0  0  0  0  0  0  0  0
    0.5100    6.4190    0.2800 C   0  0  0  0  0  0  0  0  0  0  0  0
    1.9720    5.6450    2.0750 C   0  0  0  0  0  0  0  0  0  0  0  0
   -5.1500    2.4180    4.8870 C   0  0  0  0  0  0  0  0  0  0  0  0
    2.0080   -2.5530    3.6010 C   0  0  0  0  0  0  0  0  0  0  0  0
    2.2260   -1.8950    1.2610 C   0  0  0  0  0  0  0  0  0  0  0  0
   -4.9860    1.0480    5.1520 C   0  0  0  0  0  0  0  0  0  0  0  0
    1.4390    7.4420   -0.0110 C   0  0  0  0  0  0  0  0  0  0  0  0
   -0.9560    6.3110   -0.6620 S   0  0  0  0  0  0  0  0  0  0  0  0
    2.8910    6.6660    1.7760 C   0  0  0  0  0  0  0  0  0  0  0  0
    3.0870   -3.4480    3.4320 C   0  0  0  0  0  0  0  0  0  0  0  0
    1.2300   -2.4460    5.1620 S   0  0  0  0  0  0  0  0  0  0  0  0
    3.2990   -2.7880    1.1030 C   0  0  0  0  0  0  0  0  0  0  0  0
    2.6370    7.5740    0.7270 C   0  0  0  0  0  0  0  0  0  0  0  0
   -2.2790    6.6640    0.3290 O   0  0  0  0  0  0  0  0  0  0  0  0
   -0.9790    7.3680   -1.9820 O   0  0  0  0  0  0  0  0  0  0  0  0
   -1.1560    4.7340   -1.2390 O   0  0  0  0  0  0  0  0  0  0  0  0
    3.7460   -3.5710    2.1880 C   0  0  0  0  0  0  0  0  0  0  0  0
   -0.3750   -2.9590    5.0230 O   0  0  0  0  0  0  0  0  0  0  0  0
    1.9900   -3.3740    6.3540 O   0  0  0  0  0  0  0  0  0  0  0  0
    1.2040   -0.8350    5.6740 O   0  0  0  0  0  0  0  0  0  0  0  0
    3.6180    8.6430    0.4310 C   0  0  0  0  0  0  0  0  0  0  0  0
    4.8780   -4.5060    1.9980 C   0  0  0  0  0  0  0  0  0  0  0  0
   -1.0380    4.8690    1.7050 H   0  0  0  0  0  0  0  0  0  0  0  0
    2.0600    3.0620    1.2440 H   0  0  0  0  0  0  0  0  0  0  0  0
   -0.2300   -1.3180    3.1450 H   0  0  0  0  0  0  0  0  0  0  0  0
    2.3440    0.7760    1.7160 H   0  0  0  0  0  0  0  0  0  0  0  0
   -4.4110    4.0730    3.8190 H   0  0  0  0  0  0  0  0  0  0  0  0
   -3.8460   -0.6700    4.7370 H   0  0  0  0  0  0  0  0  0  0  0  0
    2.1650    5.0220    2.8630 H   0  0  0  0  0  0  0  0  0  0  0  0
   -5.8990    2.9410    5.3460 H   0  0  0  0  0  0  0  0  0  0  0  0
    1.9000   -1.3650    0.4490 H   0  0  0  0  0  0  0  0  0  0  0  0
   -5.6170    0.5760    5.8040 H   0  0  0  0  0  0  0  0  0  0  0  0
    1.2410    8.1030   -0.7640 H   0  0  0  0  0  0  0  0  0  0  0  0
    3.7420    6.7500    2.3380 H   0  0  0  0  0  0  0  0  0  0  0  0
    3.3960   -4.0200    4.2200 H   0  0  0  0  0  0  0  0  0  0  0  0
    3.7470   -2.8700    0.1870 H   0  0  0  0  0  0  0  0  0  0  0  0
    3.3000    9.2750   -0.4000 H   0  0  0  0  0  0  0  0  0  0  0  0
    3.7470    9.2770    1.3100 H   0  0  0  0  0  0  0  0  0  0  0  0
    4.5800    8.1980    0.1720 H   0  0  0  0  0  0  0  0  0  0  0  0
    5.1200   -5.0510    2.9120 H   0  0  0  0  0  0  0  0  0  0  0  0
    4.6280   -5.2340    1.2240 H   0  0  0  0  0  0  0  0  0  0  0  0
    5.7650   -3.9510    1.6870 H   0  0  0  0  0  0  0  0  0  0  0  0
  1  4  1  0  0  0  0
  1  2  2  0  0  0  0
  1  3  1  0  0  0  0
  2  6  1  0  0  0  0
  2  5  1  0  0  0  0
  3  7  1  0  0  0  0
  3  8  2  0  0  0  0
  4  9  1  0  0  0  0
  4 10  2  0  0  0  0
  5 11  1  0  0  0  0
  5 12  2  0  0  0  0
  6 13  1  0  0  0  0
  6 14  2  0  0  0  0
  7 41  1  0  0  0  0
  7 15  1  0  0  0  0
  8 12  1  0  0  0  0
  8 42  1  0  0  0  0
  9 13  2  0  0  0  0
  9 16  1  0  0  0  0
 11 43  1  0  0  0  0
 11 17  1  0  0  0  0
 12 44  1  0  0  0  0
 13 18  1  0  0  0  0
 15 20  2  0  0  0  0
 15 19  1  0  0  0  0
 16 21  2  0  0  0  0
 16 45  1  0  0  0  0
 17 22  2  0  0  0  0
 17 23  1  0  0  0  0
 18 46  1  0  0  0  0
 18 24  2  0  0  0  0
 19 25  2  0  0  0  0
 19 26  1  0  0  0  0
 20 47  1  0  0  0  0
 20 27  1  0  0  0  0
 21 24  1  0  0  0  0
 21 48  1  0  0  0  0
 22 29  1  0  0  0  0
 22 28  1  0  0  0  0
 23 30  2  0  0  0  0
 23 49  1  0  0  0  0
 24 50  1  0  0  0  0
 25 31  1  0  0  0  0
 25 51  1  0  0  0  0
 26 32  2  0  0  0  0
 26 33  2  0  0  0  0
 26 34  1  0  0  0  0
 27 52  1  0  0  0  0
 27 31  2  0  0  0  0
 28 53  1  0  0  0  0
 28 35  2  0  0  0  0
 29 38  2  0  0  0  0
 29 37  1  0  0  0  0
 29 36  2  0  0  0  0
 30 35  1  0  0  0  0
 30 54  1  0  0  0  0
 31 39  1  0  0  0  0
 35 40  1  0  0  0  0
 39 56  1  0  0  0  0
 39 55  1  0  0  0  0
 39 57  1  0  0  0  0
 40 58  1  0  0  0  0
 40 59  1  0  0  0  0
 40 60  1  0  0  0  0
M  END
