decoy-405
 OpenBabel06062114513D

 33 33  0  0  0  0  0  0  0  0999 V2000
   -0.0050    1.2840   -0.0770 C   0  0  0  0  0  0  0  0  0  0  0  0
   -0.0660   -0.1140    0.1400 C   0  0  0  0  0  0  0  0  0  0  0  0
    1.3060    1.9920   -0.1530 C   0  0  0  0  0  0  0  0  0  0  0  0
   -1.2210    1.9950   -0.2160 C   0  0  0  0  0  0  0  0  0  0  0  0
   -1.3030   -0.7860    0.2120 C   0  0  0  0  0  0  0  0  0  0  0  0
    1.5930    2.5580   -1.5680 C   0  0  0  0  0  0  0  0  0  0  0  0
    1.3380    3.0440    0.8110 O   0  0  0  0  0  0  0  0  0  0  0  0
   -2.4580    1.3290   -0.1450 C   0  0  0  0  0  0  0  0  0  0  0  0
   -2.5040   -0.0610    0.0680 C   0  0  0  0  0  0  0  0  0  0  0  0
   -1.3410   -2.1270    0.4180 O   0  0  0  0  0  0  0  0  0  0  0  0
    2.9430    3.1670   -1.6170 C   0  0  0  0  0  0  0  0  0  0  0  0
   -3.7150   -0.6710    0.1320 O   0  0  0  0  0  0  0  0  0  0  0  0
    3.4190    3.6640   -2.9350 C   0  0  0  0  0  0  0  0  0  0  0  0
    2.7030    4.9730   -3.3620 C   0  0  0  0  0  0  0  0  0  0  0  0
    4.9500    3.8770   -2.8450 C   0  0  0  0  0  0  0  0  0  0  0  0
    0.7970   -0.6540    0.2440 H   0  0  0  0  0  0  0  0  0  0  0  0
    2.1210    1.3080    0.1010 H   0  0  0  0  0  0  0  0  0  0  0  0
   -1.2140    3.0060   -0.3660 H   0  0  0  0  0  0  0  0  0  0  0  0
    1.5350    1.7450   -2.2970 H   0  0  0  0  0  0  0  0  0  0  0  0
    0.8420    3.3090   -1.8200 H   0  0  0  0  0  0  0  0  0  0  0  0
    1.2120    2.6010    1.6760 H   0  0  0  0  0  0  0  0  0  0  0  0
   -3.3250    1.8610   -0.2480 H   0  0  0  0  0  0  0  0  0  0  0  0
   -0.4070   -2.4160    0.4880 H   0  0  0  0  0  0  0  0  0  0  0  0
    2.9720    3.9430   -0.9520 H   0  0  0  0  0  0  0  0  0  0  0  0
   -3.5330   -1.6220    0.2830 H   0  0  0  0  0  0  0  0  0  0  0  0
    3.2380    2.9010   -3.6990 H   0  0  0  0  0  0  0  0  0  0  0  0
    3.1280    5.3530   -4.2930 H   0  0  0  0  0  0  0  0  0  0  0  0
    1.6410    4.7910   -3.5300 H   0  0  0  0  0  0  0  0  0  0  0  0
    2.8110    5.7370   -2.5890 H   0  0  0  0  0  0  0  0  0  0  0  0
    5.3470    4.2040   -3.8090 H   0  0  0  0  0  0  0  0  0  0  0  0
    5.1910    4.6310   -2.0930 H   0  0  0  0  0  0  0  0  0  0  0  0
    5.4440    2.9420   -2.5730 H   0  0  0  0  0  0  0  0  0  0  0  0
    3.6050    2.4560   -1.2990 H   0  0  0  0  0  0  0  0  0  0  0  0
  1  2  2  0  0  0  0
  1  3  1  0  0  0  0
  1  4  1  0  0  0  0
  2  5  1  0  0  0  0
  2 16  1  0  0  0  0
  3 17  1  0  0  0  0
  3  7  1  0  0  0  0
  3  6  1  0  0  0  0
  4  8  2  0  0  0  0
  4 18  1  0  0  0  0
  5 10  1  0  0  0  0
  5  9  2  0  0  0  0
  6 11  1  0  0  0  0
  6 19  1  0  0  0  0
  6 20  1  0  0  0  0
  7 21  1  0  0  0  0
  8  9  1  0  0  0  0
  8 22  1  0  0  0  0
  9 12  1  0  0  0  0
 10 23  1  0  0  0  0
 11 33  1  0  0  0  0
 11 24  1  0  0  0  0
 11 13  1  0  0  0  0
 12 25  1  0  0  0  0
 13 15  1  0  0  0  0
 13 14  1  0  0  0  0
 13 26  1  0  0  0  0
 14 29  1  0  0  0  0
 14 27  1  0  0  0  0
 14 28  1  0  0  0  0
 15 32  1  0  0  0  0
 15 31  1  0  0  0  0
 15 30  1  0  0  0  0
M  END
