decoy-712
 OpenBabel06062114513D

 16 16  0  0  0  0  0  0  0  0999 V2000
    0.0140    1.5450    0.0170 C   0  0  0  0  0  0  0  0  0  0  0  0
   -0.1070    0.1240    0.0370 C   0  0  0  0  0  0  0  0  0  0  0  0
    1.3170    2.1030   -0.0080 C   0  0  0  0  0  0  0  0  0  0  0  0
   -1.1050    2.4270    0.0160 C   0  0  0  0  0  0  0  0  0  0  0  0
    1.0500   -0.6910    0.0050 C   0  0  0  0  0  0  0  0  0  0  0  0
   -1.3000   -0.4990    0.1150 N   0  0  0  0  0  0  0  0  0  0  0  0
    2.4620    1.2900   -0.0330 C   0  0  0  0  0  0  0  0  0  0  0  0
   -0.9730    3.7450    0.2930 O   0  0  0  0  0  0  0  0  0  0  0  0
   -2.3390    2.0410   -0.3790 O   0  0  0  0  0  0  0  0  0  0  0  0
    2.3260   -0.1050   -0.0310 C   0  0  0  0  0  0  0  0  0  0  0  0
    0.9500   -2.7460    0.0250 I   0  0  0  0  0  0  0  0  0  0  0  0
    4.3310    2.1380   -0.0820 I   0  0  0  0  0  0  0  0  0  0  0  0
    1.4540    3.1160   -0.0240 H   0  0  0  0  0  0  0  0  0  0  0  0
   -2.1220    0.0080    0.1750 H   0  0  0  0  0  0  0  0  0  0  0  0
   -1.3430   -1.4680    0.1360 H   0  0  0  0  0  0  0  0  0  0  0  0
    3.1590   -0.6960   -0.0510 H   0  0  0  0  0  0  0  0  0  0  0  0
  1  2  2  0  0  0  0
  1  3  1  0  0  0  0
  1  4  1  0  0  0  0
  2  6  1  0  0  0  0
  2  5  1  0  0  0  0
  3  7  2  0  0  0  0
  3 13  1  0  0  0  0
  4  8  1  0  0  0  0
  4  9  2  0  0  0  0
  5 11  1  0  0  0  0
  5 10  2  0  0  0  0
  6 15  1  0  0  0  0
  6 14  1  0  0  0  0
  7 10  1  0  0  0  0
  7 12  1  0  0  0  0
 10 16  1  0  0  0  0
M  END
