decoy-662
 OpenBabel06062114513D

 52 55  0  0  0  0  0  0  0  0999 V2000
    0.1620    2.3290    0.4970 P   0  0  0  0  0  0  0  0  0  0  0  0
   -0.1820    0.7510    0.4370 C   0  0  0  0  0  0  0  0  0  0  0  0
    1.3670    2.6940   -0.5250 C   0  0  0  0  0  0  0  0  0  0  0  0
   -1.1950    3.0920   -0.1380 C   0  0  0  0  0  0  0  0  0  0  0  0
   -0.0580    0.0120    1.6380 C   0  0  0  0  0  0  0  0  0  0  0  0
   -0.6340    0.0750   -0.7260 C   0  0  0  0  0  0  0  0  0  0  0  0
    2.1160    1.7410   -1.2670 C   0  0  0  0  0  0  0  0  0  0  0  0
    1.7770    4.0510   -0.6100 C   0  0  0  0  0  0  0  0  0  0  0  0
   -2.4950    2.8420    0.6830 C   0  0  0  0  0  0  0  0  0  0  0  0
   -0.3670   -1.3600    1.6750 C   0  0  0  0  0  0  0  0  0  0  0  0
   -0.9420   -1.2980   -0.6870 C   0  0  0  0  0  0  0  0  0  0  0  0
    3.1740    2.1350   -2.1070 C   0  0  0  0  0  0  0  0  0  0  0  0
    2.8350    4.4480   -1.4490 C   0  0  0  0  0  0  0  0  0  0  0  0
   -3.8090    3.6910    0.0790 P   0  0  0  0  0  0  0  0  0  0  0  0
   -0.8090   -2.0160    0.5140 C   0  0  0  0  0  0  0  0  0  0  0  0
    3.5290    3.4900   -2.2050 C   0  0  0  0  0  0  0  0  0  0  0  0
   -5.0380    3.1890    0.9930 C   0  0  0  0  0  0  0  0  0  0  0  0
   -3.7510    5.2710    0.4200 C   0  0  0  0  0  0  0  0  0  0  0  0
   -5.0980    3.3620    2.4000 C   0  0  0  0  0  0  0  0  0  0  0  0
   -6.1190    2.5420    0.3470 C   0  0  0  0  0  0  0  0  0  0  0  0
   -4.6950    6.1050   -0.2320 C   0  0  0  0  0  0  0  0  0  0  0  0
   -2.8240    5.8840    1.3040 C   0  0  0  0  0  0  0  0  0  0  0  0
   -6.2050    2.8990    3.1350 C   0  0  0  0  0  0  0  0  0  0  0  0
   -7.2250    2.0790    1.0840 C   0  0  0  0  0  0  0  0  0  0  0  0
   -4.7190    7.4930   -0.0040 C   0  0  0  0  0  0  0  0  0  0  0  0
   -2.8480    7.2720    1.5310 C   0  0  0  0  0  0  0  0  0  0  0  0
   -7.2690    2.2570    2.4770 C   0  0  0  0  0  0  0  0  0  0  0  0
   -3.7950    8.0780    0.8780 C   0  0  0  0  0  0  0  0  0  0  0  0
   -0.9960    4.1640   -0.1410 H   0  0  0  0  0  0  0  0  0  0  0  0
   -1.3500    2.7930   -1.1780 H   0  0  0  0  0  0  0  0  0  0  0  0
    0.2570    0.4600    2.5050 H   0  0  0  0  0  0  0  0  0  0  0  0
   -0.7320    0.5670   -1.6160 H   0  0  0  0  0  0  0  0  0  0  0  0
    1.9230    0.7420   -1.2010 H   0  0  0  0  0  0  0  0  0  0  0  0
    1.3160    4.7790   -0.0560 H   0  0  0  0  0  0  0  0  0  0  0  0
   -2.7470    1.7810    0.6130 H   0  0  0  0  0  0  0  0  0  0  0  0
   -2.3260    3.0650    1.7380 H   0  0  0  0  0  0  0  0  0  0  0  0
   -0.2720   -1.8820    2.5500 H   0  0  0  0  0  0  0  0  0  0  0  0
   -1.2620   -1.7740   -1.5330 H   0  0  0  0  0  0  0  0  0  0  0  0
    3.6950    1.4340   -2.6380 H   0  0  0  0  0  0  0  0  0  0  0  0
    3.1050    5.4320   -1.5020 H   0  0  0  0  0  0  0  0  0  0  0  0
   -1.0330   -3.0130    0.5420 H   0  0  0  0  0  0  0  0  0  0  0  0
    4.3010    3.7760   -2.8120 H   0  0  0  0  0  0  0  0  0  0  0  0
   -4.3430    3.8300    2.9050 H   0  0  0  0  0  0  0  0  0  0  0  0
   -6.1180    2.3970   -0.6680 H   0  0  0  0  0  0  0  0  0  0  0  0
   -5.3830    5.7150   -0.8840 H   0  0  0  0  0  0  0  0  0  0  0  0
   -2.1220    5.3390    1.8030 H   0  0  0  0  0  0  0  0  0  0  0  0
   -6.2380    3.0300    4.1480 H   0  0  0  0  0  0  0  0  0  0  0  0
   -7.9990    1.6130    0.6050 H   0  0  0  0  0  0  0  0  0  0  0  0
   -5.4080    8.0790   -0.4820 H   0  0  0  0  0  0  0  0  0  0  0  0
   -2.1750    7.6970    2.1730 H   0  0  0  0  0  0  0  0  0  0  0  0
   -8.0730    1.9210    3.0110 H   0  0  0  0  0  0  0  0  0  0  0  0
   -3.8120    9.0870    1.0430 H   0  0  0  0  0  0  0  0  0  0  0  0
  1  2  1  0  0  0  0
  1  3  1  0  0  0  0
  1  4  1  0  0  0  0
  2  5  2  0  0  0  0
  2  6  1  0  0  0  0
  3  7  2  0  0  0  0
  3  8  1  0  0  0  0
  4  9  1  0  0  0  0
  4 29  1  0  0  0  0
  4 30  1  0  0  0  0
  5 10  1  0  0  0  0
  5 31  1  0  0  0  0
  6 11  2  0  0  0  0
  6 32  1  0  0  0  0
  7 33  1  0  0  0  0
  7 12  1  0  0  0  0
  8 34  1  0  0  0  0
  8 13  2  0  0  0  0
  9 36  1  0  0  0  0
  9 14  1  0  0  0  0
  9 35  1  0  0  0  0
 10 37  1  0  0  0  0
 10 15  2  0  0  0  0
 11 15  1  0  0  0  0
 11 38  1  0  0  0  0
 12 16  2  0  0  0  0
 12 39  1  0  0  0  0
 13 16  1  0  0  0  0
 13 40  1  0  0  0  0
 14 18  1  0  0  0  0
 14 17  1  0  0  0  0
 15 41  1  0  0  0  0
 16 42  1  0  0  0  0
 17 19  2  0  0  0  0
 17 20  1  0  0  0  0
 18 22  2  0  0  0  0
 18 21  1  0  0  0  0
 19 43  1  0  0  0  0
 19 23  1  0  0  0  0
 20 24  2  0  0  0  0
 20 44  1  0  0  0  0
 21 25  2  0  0  0  0
 21 45  1  0  0  0  0
 22 26  1  0  0  0  0
 22 46  1  0  0  0  0
 23 47  1  0  0  0  0
 23 27  2  0  0  0  0
 24 27  1  0  0  0  0
 24 48  1  0  0  0  0
 25 28  1  0  0  0  0
 25 49  1  0  0  0  0
 26 50  1  0  0  0  0
 26 28  2  0  0  0  0
 27 51  1  0  0  0  0
 28 52  1  0  0  0  0
M  END
