decoy-3
 OpenBabel06062114503D

 57 58  0  0  0  0  0  0  0  0999 V2000
   -0.0080    1.1960   -0.1870 C   0  0  0  0  0  0  0  0  0  0  0  0
    0.2330   -0.3430   -0.2390 C   0  0  0  0  0  0  0  0  0  0  0  0
    1.2470    1.9330   -0.3140 C   0  0  0  0  0  0  0  0  0  0  0  0
   -0.9400    1.5520   -1.2280 N   0  0  0  0  0  0  0  0  0  0  0  0
   -1.0050   -1.1230   -0.0330 C   0  0  0  0  0  0  0  0  0  0  0  0
    2.1380    1.8450    0.6660 N   0  0  0  0  0  0  0  0  0  0  0  0
    1.4660    2.6310   -1.2980 O   0  0  0  0  0  0  0  0  0  0  0  0
   -2.1560    2.0630   -1.0870 C   0  0  0  0  0  0  0  0  0  0  0  0
   -1.6180   -1.9820   -0.9400 C   0  0  0  0  0  0  0  0  0  0  0  0
   -1.7530   -1.1090    1.0850 N   0  0  0  0  0  0  0  0  0  0  0  0
    3.4200    2.4890    0.7500 C   0  0  0  0  0  0  0  0  0  0  0  0
   -2.9310    2.3160   -2.2870 C   0  0  0  0  0  0  0  0  0  0  0  0
   -2.6210    2.3020    0.0220 O   0  0  0  0  0  0  0  0  0  0  0  0
   -2.7170   -2.4620   -0.3510 N   0  0  0  0  0  0  0  0  0  0  0  0
   -2.7950   -1.9320    0.8770 C   0  0  0  0  0  0  0  0  0  0  0  0
    3.4700    3.3920    2.0200 C   0  0  0  0  0  0  0  0  0  0  0  0
    4.4970    1.4720    0.7850 C   0  0  0  0  0  0  0  0  0  0  0  0
   -4.2360    2.8530   -2.0420 N   0  0  0  0  0  0  0  0  0  0  0  0
    2.3820    4.5120    2.1150 C   0  0  0  0  0  0  0  0  0  0  0  0
    5.7920    1.8600    0.7550 O   0  0  0  0  0  0  0  0  0  0  0  0
    4.2410    0.1430    0.7830 O   0  0  0  0  0  0  0  0  0  0  0  0
   -5.1280    3.1600   -2.9740 C   0  0  0  0  0  0  0  0  0  0  0  0
    2.4360    5.2100    3.5020 C   0  0  0  0  0  0  0  0  0  0  0  0
    2.4960    5.5680    0.9800 C   0  0  0  0  0  0  0  0  0  0  0  0
   -6.3580    3.6710   -2.6010 C   0  0  0  0  0  0  0  0  0  0  0  0
   -4.8870    3.0060   -4.1650 O   0  0  0  0  0  0  0  0  0  0  0  0
   -6.8310    4.8840   -3.1560 C   0  0  0  0  0  0  0  0  0  0  0  0
   -7.1700    2.9890   -1.6620 C   0  0  0  0  0  0  0  0  0  0  0  0
   -8.0840    5.4040   -2.7780 C   0  0  0  0  0  0  0  0  0  0  0  0
   -8.4220    3.5100   -1.2860 C   0  0  0  0  0  0  0  0  0  0  0  0
   -8.8790    4.7180   -1.8440 C   0  0  0  0  0  0  0  0  0  0  0  0
   -0.4220    1.4430    0.7970 H   0  0  0  0  0  0  0  0  0  0  0  0
    0.6770   -0.6070   -1.2040 H   0  0  0  0  0  0  0  0  0  0  0  0
    0.9380   -0.6400    0.5410 H   0  0  0  0  0  0  0  0  0  0  0  0
   -0.6480    1.3820   -2.1380 H   0  0  0  0  0  0  0  0  0  0  0  0
    1.8970    1.2800    1.4170 H   0  0  0  0  0  0  0  0  0  0  0  0
   -1.2990   -2.2040   -1.8850 H   0  0  0  0  0  0  0  0  0  0  0  0
    3.6130    3.1080   -0.1290 H   0  0  0  0  0  0  0  0  0  0  0  0
   -2.3750    3.0180   -2.9140 H   0  0  0  0  0  0  0  0  0  0  0  0
   -3.0380    1.3730   -2.8310 H   0  0  0  0  0  0  0  0  0  0  0  0
   -3.3490   -3.0860   -0.7430 H   0  0  0  0  0  0  0  0  0  0  0  0
   -3.5360   -2.1220    1.5540 H   0  0  0  0  0  0  0  0  0  0  0  0
    3.3730    2.7420    2.8960 H   0  0  0  0  0  0  0  0  0  0  0  0
    4.4550    3.8670    2.0780 H   0  0  0  0  0  0  0  0  0  0  0  0
   -4.4900    3.0060   -1.1180 H   0  0  0  0  0  0  0  0  0  0  0  0
    1.3960    4.0450    2.0340 H   0  0  0  0  0  0  0  0  0  0  0  0
    1.6430    5.9560    3.5870 H   0  0  0  0  0  0  0  0  0  0  0  0
    2.2960    4.4800    4.3020 H   0  0  0  0  0  0  0  0  0  0  0  0
    3.3980    5.7070    3.6480 H   0  0  0  0  0  0  0  0  0  0  0  0
    2.3210    5.1100    0.0060 H   0  0  0  0  0  0  0  0  0  0  0  0
    1.7490    6.3540    1.1130 H   0  0  0  0  0  0  0  0  0  0  0  0
    3.4870    6.0270    0.9790 H   0  0  0  0  0  0  0  0  0  0  0  0
   -6.2660    5.4020   -3.8350 H   0  0  0  0  0  0  0  0  0  0  0  0
   -6.8580    2.1060   -1.2480 H   0  0  0  0  0  0  0  0  0  0  0  0
   -8.4160    6.2820   -3.1830 H   0  0  0  0  0  0  0  0  0  0  0  0
   -9.0010    3.0100   -0.6080 H   0  0  0  0  0  0  0  0  0  0  0  0
   -9.7890    5.0950   -1.5700 H   0  0  0  0  0  0  0  0  0  0  0  0
  1 32  1  0  0  0  0
  1  2  1  0  0  0  0
  1  3  1  0  0  0  0
  1  4  1  0  0  0  0
  2  5  1  0  0  0  0
  2 34  1  0  0  0  0
  2 33  1  0  0  0  0
  3  6  1  0  0  0  0
  3  7  2  0  0  0  0
  4  8  1  0  0  0  0
  4 35  1  0  0  0  0
  5 10  1  0  0  0  0
  5  9  2  0  0  0  0
  6 11  1  0  0  0  0
  6 36  1  0  0  0  0
  8 13  2  0  0  0  0
  8 12  1  0  0  0  0
  9 14  1  0  0  0  0
  9 37  1  0  0  0  0
 10 15  2  0  0  0  0
 11 38  1  0  0  0  0
 11 17  1  0  0  0  0
 11 16  1  0  0  0  0
 12 18  1  0  0  0  0
 12 39  1  0  0  0  0
 12 40  1  0  0  0  0
 14 15  1  0  0  0  0
 14 41  1  0  0  0  0
 15 42  1  0  0  0  0
 16 44  1  0  0  0  0
 16 19  1  0  0  0  0
 16 43  1  0  0  0  0
 17 20  2  0  0  0  0
 17 21  1  0  0  0  0
 18 45  1  0  0  0  0
 18 22  1  0  0  0  0
 19 23  1  0  0  0  0
 19 24  1  0  0  0  0
 19 46  1  0  0  0  0
 22 25  1  0  0  0  0
 22 26  2  0  0  0  0
 23 47  1  0  0  0  0
 23 49  1  0  0  0  0
 23 48  1  0  0  0  0
 24 51  1  0  0  0  0
 24 50  1  0  0  0  0
 24 52  1  0  0  0  0
 25 28  2  0  0  0  0
 25 27  1  0  0  0  0
 27 29  2  0  0  0  0
 27 53  1  0  0  0  0
 28 30  1  0  0  0  0
 28 54  1  0  0  0  0
 29 31  1  0  0  0  0
 29 55  1  0  0  0  0
 30 56  1  0  0  0  0
 30 31  2  0  0  0  0
 31 57  1  0  0  0  0
M  END
