decoy-1040
 OpenBabel06062114513D

 20 19  0  0  0  0  0  0  0  0999 V2000
    0.0160    1.5480    0.0090 C   0  0  0  0  0  0  0  0  0  0  0  0
   -0.0340   -0.0290    0.0010 C   0  0  0  0  0  0  0  0  0  0  0  0
    1.4520    2.1960   -0.0010 C   0  0  0  0  0  0  0  0  0  0  0  0
   -0.6800    2.0200   -1.0830 F   0  0  0  0  0  0  0  0  0  0  0  0
   -0.6580    2.0070    1.1200 F   0  0  0  0  0  0  0  0  0  0  0  0
   -1.4700   -0.6770    0.0110 C   0  0  0  0  0  0  0  0  0  0  0  0
    0.6400   -0.4880   -1.1100 F   0  0  0  0  0  0  0  0  0  0  0  0
    0.6610   -0.5000    1.0930 F   0  0  0  0  0  0  0  0  0  0  0  0
    1.4910    3.7590    0.0070 C   0  0  0  0  0  0  0  0  0  0  0  0
    2.1700    1.7610    1.0920 F   0  0  0  0  0  0  0  0  0  0  0  0
    2.1490    1.7730   -1.1130 F   0  0  0  0  0  0  0  0  0  0  0  0
   -1.5100   -2.2390    0.0030 C   0  0  0  0  0  0  0  0  0  0  0  0
   -2.1670   -0.2530    1.1230 F   0  0  0  0  0  0  0  0  0  0  0  0
   -2.1890   -0.2410   -1.0820 F   0  0  0  0  0  0  0  0  0  0  0  0
    2.7890    4.2170   -0.0030 F   0  0  0  0  0  0  0  0  0  0  0  0
    0.8730    4.2990   -1.0950 F   0  0  0  0  0  0  0  0  0  0  0  0
    0.8950    4.2870    1.1270 F   0  0  0  0  0  0  0  0  0  0  0  0
   -0.8910   -2.7800    1.1050 F   0  0  0  0  0  0  0  0  0  0  0  0
   -2.8080   -2.6970    0.0130 F   0  0  0  0  0  0  0  0  0  0  0  0
   -0.9130   -2.7670   -1.1170 F   0  0  0  0  0  0  0  0  0  0  0  0
  1  5  1  0  0  0  0
  1  2  1  0  0  0  0
  1  3  1  0  0  0  0
  1  4  1  0  0  0  0
  2  6  1  0  0  0  0
  2  8  1  0  0  0  0
  2  7  1  0  0  0  0
  3  9  1  0  0  0  0
  3 10  1  0  0  0  0
  3 11  1  0  0  0  0
  6 13  1  0  0  0  0
  6 12  1  0  0  0  0
  6 14  1  0  0  0  0
  9 17  1  0  0  0  0
  9 15  1  0  0  0  0
  9 16  1  0  0  0  0
 12 19  1  0  0  0  0
 12 18  1  0  0  0  0
 12 20  1  0  0  0  0
M  END
