decoy-760
 OpenBabel06062114513D

 43 45  0  0  0  0  0  0  0  0999 V2000
   -0.1710    1.4490    0.2390 N   0  0  0  0  0  0  0  0  0  0  0  0
   -0.0560    0.1130    0.1420 C   0  0  0  0  0  0  0  0  0  0  0  0
    0.9200    2.3800    0.3260 C   0  0  0  0  0  0  0  0  0  0  0  0
   -1.4960    1.7170    0.2470 C   0  0  0  0  0  0  0  0  0  0  0  0
   -1.3390   -0.4220    0.0860 C   0  0  0  0  0  0  0  0  0  0  0  0
    1.0340   -0.7050    0.0920 N   0  0  0  0  0  0  0  0  0  0  0  0
    0.4870    3.7330    0.5430 O   0  0  0  0  0  0  0  0  0  0  0  0
    1.7910    2.4220   -0.9520 C   0  0  0  0  0  0  0  0  0  0  0  0
   -2.2200    0.5850    0.1530 N   0  0  0  0  0  0  0  0  0  0  0  0
   -1.4870   -1.7940   -0.0200 C   0  0  0  0  0  0  0  0  0  0  0  0
    0.8690   -2.0560   -0.0140 C   0  0  0  0  0  0  0  0  0  0  0  0
    1.5650    4.5780    0.1230 C   0  0  0  0  0  0  0  0  0  0  0  0
    2.0870    3.9170   -1.1690 C   0  0  0  0  0  0  0  0  0  0  0  0
   -0.3990   -2.5650   -0.0660 N   0  0  0  0  0  0  0  0  0  0  0  0
   -2.5960   -2.3030   -0.0710 O   0  0  0  0  0  0  0  0  0  0  0  0
    1.8950   -2.9380   -0.0710 N   0  0  0  0  0  0  0  0  0  0  0  0
    1.0780    6.0330   -0.0640 C   0  0  0  0  0  0  0  0  0  0  0  0
    3.4730    4.1820   -1.3780 O   0  0  0  0  0  0  0  0  0  0  0  0
    3.2030   -2.7020   -0.0410 C   0  0  0  0  0  0  0  0  0  0  0  0
    0.6220    6.5630    1.1760 O   0  0  0  0  0  0  0  0  0  0  0  0
    4.1190   -3.8420   -0.1120 C   0  0  0  0  0  0  0  0  0  0  0  0
    3.6430   -1.5600    0.0440 O   0  0  0  0  0  0  0  0  0  0  0  0
    5.5970   -3.4620   -0.4190 C   0  0  0  0  0  0  0  0  0  0  0  0
    4.0400   -4.6940    1.1860 C   0  0  0  0  0  0  0  0  0  0  0  0
    1.5410    2.0930    1.1830 H   0  0  0  0  0  0  0  0  0  0  0  0
   -1.9130    2.6470    0.3120 H   0  0  0  0  0  0  0  0  0  0  0  0
    2.7100    1.8460   -0.8070 H   0  0  0  0  0  0  0  0  0  0  0  0
    1.2570    2.0160   -1.8170 H   0  0  0  0  0  0  0  0  0  0  0  0
    2.3490    4.5690    0.8900 H   0  0  0  0  0  0  0  0  0  0  0  0
    1.5260    4.2770   -2.0370 H   0  0  0  0  0  0  0  0  0  0  0  0
   -0.5120   -3.5260   -0.1410 H   0  0  0  0  0  0  0  0  0  0  0  0
    1.6390   -3.8710   -0.1440 H   0  0  0  0  0  0  0  0  0  0  0  0
    1.8960    6.6550   -0.4310 H   0  0  0  0  0  0  0  0  0  0  0  0
    0.2560    6.0690   -0.7830 H   0  0  0  0  0  0  0  0  0  0  0  0
    3.6990    3.7040   -2.2030 H   0  0  0  0  0  0  0  0  0  0  0  0
    0.3370    7.4780    0.9680 H   0  0  0  0  0  0  0  0  0  0  0  0
    3.7900   -4.4750   -0.9430 H   0  0  0  0  0  0  0  0  0  0  0  0
    6.2050   -4.3610   -0.5350 H   0  0  0  0  0  0  0  0  0  0  0  0
    5.6560   -2.8920   -1.3480 H   0  0  0  0  0  0  0  0  0  0  0  0
    6.0200   -2.8600    0.3890 H   0  0  0  0  0  0  0  0  0  0  0  0
    3.0220   -5.0500    1.3560 H   0  0  0  0  0  0  0  0  0  0  0  0
    4.6900   -5.5680    1.1080 H   0  0  0  0  0  0  0  0  0  0  0  0
    4.3520   -4.1050    2.0520 H   0  0  0  0  0  0  0  0  0  0  0  0
  1  4  1  0  0  0  0
  1  3  1  0  0  0  0
  1  2  1  0  0  0  0
  2  5  2  0  0  0  0
  2  6  1  0  0  0  0
  3  7  1  0  0  0  0
  3 25  1  0  0  0  0
  3  8  1  0  0  0  0
  4 26  1  0  0  0  0
  4  9  2  0  0  0  0
  5  9  1  0  0  0  0
  5 10  1  0  0  0  0
  6 11  2  0  0  0  0
  7 12  1  0  0  0  0
  8 27  1  0  0  0  0
  8 13  1  0  0  0  0
  8 28  1  0  0  0  0
 10 14  1  0  0  0  0
 10 15  2  0  0  0  0
 11 14  1  0  0  0  0
 11 16  1  0  0  0  0
 12 13  1  0  0  0  0
 12 29  1  0  0  0  0
 12 17  1  0  0  0  0
 13 30  1  0  0  0  0
 13 18  1  0  0  0  0
 14 31  1  0  0  0  0
 16 19  1  0  0  0  0
 16 32  1  0  0  0  0
 17 20  1  0  0  0  0
 17 33  1  0  0  0  0
 17 34  1  0  0  0  0
 18 35  1  0  0  0  0
 19 22  2  0  0  0  0
 19 21  1  0  0  0  0
 20 36  1  0  0  0  0
 21 24  1  0  0  0  0
 21 23  1  0  0  0  0
 21 37  1  0  0  0  0
 23 40  1  0  0  0  0
 23 38  1  0  0  0  0
 23 39  1  0  0  0  0
 24 41  1  0  0  0  0
 24 43  1  0  0  0  0
 24 42  1  0  0  0  0
M  END
