decoy-31
 OpenBabel06062114503D

  9  9  0  0  0  0  0  0  0  0999 V2000
   -0.1230    1.3790    0.0070 C   0  0  0  0  0  0  0  0  0  0  0  0
   -0.1040   -0.0090    0.0010 C   0  0  0  0  0  0  0  0  0  0  0  0
    1.1630    1.9070   -0.0010 C   0  0  0  0  0  0  0  0  0  0  0  0
   -1.6760    2.4060    0.0240 Br  0  0  0  0  0  0  0  0  0  0  0  0
    1.1960   -0.5010   -0.0120 C   0  0  0  0  0  0  0  0  0  0  0  0
   -1.6290   -1.0770    0.0090 Br  0  0  0  0  0  0  0  0  0  0  0  0
    2.4250    0.7200   -0.0170 S   0  0  0  0  0  0  0  0  0  0  0  0
    1.5480    3.7260    0.0030 Br  0  0  0  0  0  0  0  0  0  0  0  0
    1.6300   -2.3090   -0.0230 Br  0  0  0  0  0  0  0  0  0  0  0  0
  1  4  1  0  0  0  0
  1  2  1  0  0  0  0
  1  3  2  0  0  0  0
  2  6  1  0  0  0  0
  2  5  2  0  0  0  0
  3  8  1  0  0  0  0
  3  7  1  0  0  0  0
  5  7  1  0  0  0  0
  5  9  1  0  0  0  0
M  END
