decoy-640
 OpenBabel06062114513D

 51 53  0  0  0  0  0  0  0  0999 V2000
   -5.8950   -0.3580   -1.5400 C   0  0  0  0  0  0  0  0  0  0  0  0
   -4.4670   -0.5000   -2.0030 C   0  0  0  0  0  0  0  0  0  0  0  0
   -6.0600    0.9690   -0.8380 C   0  0  0  0  0  0  0  0  0  0  0  0
   -6.3410   -1.5480   -0.7570 C   0  0  0  0  0  0  0  0  0  0  0  0
   -6.8240   -0.3750   -2.6340 O   0  0  0  0  0  0  0  0  0  0  0  0
   -3.4100   -0.4810   -1.0560 C   0  0  0  0  0  0  0  0  0  0  0  0
   -4.1210   -0.6550   -3.3710 C   0  0  0  0  0  0  0  0  0  0  0  0
   -5.9660    2.1730   -1.5870 C   0  0  0  0  0  0  0  0  0  0  0  0
   -6.2550    1.0900    0.5640 C   0  0  0  0  0  0  0  0  0  0  0  0
   -7.6200   -1.5670   -0.2950 O   0  0  0  0  0  0  0  0  0  0  0  0
   -5.5350   -2.6170   -0.5400 O   0  0  0  0  0  0  0  0  0  0  0  0
   -2.0670   -0.6070   -1.4560 C   0  0  0  0  0  0  0  0  0  0  0  0
   -2.7790   -0.7820   -3.7730 C   0  0  0  0  0  0  0  0  0  0  0  0
   -6.0980    3.4320   -0.9740 C   0  0  0  0  0  0  0  0  0  0  0  0
   -6.3890    2.3480    1.1800 C   0  0  0  0  0  0  0  0  0  0  0  0
   -8.3250   -2.5750    0.4440 C   0  0  0  0  0  0  0  0  0  0  0  0
   -1.7510   -0.7570   -2.8160 C   0  0  0  0  0  0  0  0  0  0  0  0
   -6.3160    3.5200    0.4100 C   0  0  0  0  0  0  0  0  0  0  0  0
   -9.5780   -3.0530   -0.3490 C   0  0  0  0  0  0  0  0  0  0  0  0
   -8.7330   -2.0190    1.8320 C   0  0  0  0  0  0  0  0  0  0  0  0
  -10.7300   -2.0660   -0.4510 C   0  0  0  0  0  0  0  0  0  0  0  0
   -9.8630   -0.9670    1.7300 C   0  0  0  0  0  0  0  0  0  0  0  0
  -11.0700   -1.5250    0.9250 C   0  0  0  0  0  0  0  0  0  0  0  0
  -10.4200   -0.9390   -1.4120 C   0  0  0  0  0  0  0  0  0  0  0  0
  -11.9390   -2.7940   -1.0000 C   0  0  0  0  0  0  0  0  0  0  0  0
   -6.5600    0.3580   -3.2270 H   0  0  0  0  0  0  0  0  0  0  0  0
   -3.6130   -0.3760   -0.0590 H   0  0  0  0  0  0  0  0  0  0  0  0
   -4.8420   -0.6810   -4.0950 H   0  0  0  0  0  0  0  0  0  0  0  0
   -5.7930    2.1430   -2.5940 H   0  0  0  0  0  0  0  0  0  0  0  0
   -6.2850    0.2630    1.1620 H   0  0  0  0  0  0  0  0  0  0  0  0
   -1.3210   -0.5900   -0.7570 H   0  0  0  0  0  0  0  0  0  0  0  0
   -2.5500   -0.8930   -4.7640 H   0  0  0  0  0  0  0  0  0  0  0  0
   -6.0320    4.2840   -1.5360 H   0  0  0  0  0  0  0  0  0  0  0  0
   -6.5320    2.4100    2.1910 H   0  0  0  0  0  0  0  0  0  0  0  0
   -7.6700   -3.4370    0.6040 H   0  0  0  0  0  0  0  0  0  0  0  0
   -0.7750   -0.8490   -3.1090 H   0  0  0  0  0  0  0  0  0  0  0  0
   -6.4100    4.4340    0.8580 H   0  0  0  0  0  0  0  0  0  0  0  0
   -9.2490   -3.3610   -1.3480 H   0  0  0  0  0  0  0  0  0  0  0  0
   -9.9220   -3.9650    0.1530 H   0  0  0  0  0  0  0  0  0  0  0  0
   -9.0740   -2.8460    2.4610 H   0  0  0  0  0  0  0  0  0  0  0  0
   -7.8620   -1.5720    2.3180 H   0  0  0  0  0  0  0  0  0  0  0  0
  -10.1930   -0.6980    2.7370 H   0  0  0  0  0  0  0  0  0  0  0  0
   -9.4800   -0.0590    1.2590 H   0  0  0  0  0  0  0  0  0  0  0  0
  -11.8230   -0.7330    0.8510 H   0  0  0  0  0  0  0  0  0  0  0  0
  -11.5140   -2.3170    1.5390 H   0  0  0  0  0  0  0  0  0  0  0  0
   -9.6030   -0.3060   -1.0690 H   0  0  0  0  0  0  0  0  0  0  0  0
  -11.2840   -0.2820   -1.5470 H   0  0  0  0  0  0  0  0  0  0  0  0
  -10.1420   -1.3220   -2.3970 H   0  0  0  0  0  0  0  0  0  0  0  0
  -11.7410   -3.2020   -1.9950 H   0  0  0  0  0  0  0  0  0  0  0  0
  -12.8050   -2.1310   -1.0810 H   0  0  0  0  0  0  0  0  0  0  0  0
  -12.2340   -3.6300   -0.3600 H   0  0  0  0  0  0  0  0  0  0  0  0
  1  3  1  0  0  0  0
  1  4  1  0  0  0  0
  1  2  1  0  0  0  0
  1  5  1  0  0  0  0
  2  6  2  0  0  0  0
  2  7  1  0  0  0  0
  3  9  2  0  0  0  0
  3  8  1  0  0  0  0
  4 11  2  0  0  0  0
  4 10  1  0  0  0  0
  5 26  1  0  0  0  0
  6 27  1  0  0  0  0
  6 12  1  0  0  0  0
  7 13  2  0  0  0  0
  7 28  1  0  0  0  0
  8 14  2  0  0  0  0
  8 29  1  0  0  0  0
  9 30  1  0  0  0  0
  9 15  1  0  0  0  0
 10 16  1  0  0  0  0
 12 31  1  0  0  0  0
 12 17  2  0  0  0  0
 13 17  1  0  0  0  0
 13 32  1  0  0  0  0
 14 18  1  0  0  0  0
 14 33  1  0  0  0  0
 15 34  1  0  0  0  0
 15 18  2  0  0  0  0
 16 35  1  0  0  0  0
 16 20  1  0  0  0  0
 16 19  1  0  0  0  0
 17 36  1  0  0  0  0
 18 37  1  0  0  0  0
 19 39  1  0  0  0  0
 19 21  1  0  0  0  0
 19 38  1  0  0  0  0
 20 41  1  0  0  0  0
 20 40  1  0  0  0  0
 20 22  1  0  0  0  0
 21 23  1  0  0  0  0
 21 24  1  0  0  0  0
 21 25  1  0  0  0  0
 22 42  1  0  0  0  0
 22 23  1  0  0  0  0
 22 43  1  0  0  0  0
 23 45  1  0  0  0  0
 23 44  1  0  0  0  0
 24 46  1  0  0  0  0
 24 47  1  0  0  0  0
 24 48  1  0  0  0  0
 25 51  1  0  0  0  0
 25 49  1  0  0  0  0
 25 50  1  0  0  0  0
M  END
