decoy-741
 OpenBabel06062114513D

 32 33  0  0  0  0  0  0  0  0999 V2000
   -0.8470   -0.2500   -0.8710 N   0  0  0  0  0  0  0  0  0  0  0  0
    0.3820   -0.3020   -0.2480 C   0  0  0  0  0  0  0  0  0  0  0  0
   -2.0310   -0.3570   -0.2860 C   0  0  0  0  0  0  0  0  0  0  0  0
   -1.0540   -0.0860   -2.1650 C   0  0  0  0  0  0  0  0  0  0  0  0
    1.3560    0.6940   -0.4680 C   0  0  0  0  0  0  0  0  0  0  0  0
    0.7010   -1.3540    0.6260 C   0  0  0  0  0  0  0  0  0  0  0  0
   -3.1140   -0.2580   -1.2450 C   0  0  0  0  0  0  0  0  0  0  0  0
   -2.2190   -0.4850    0.9180 O   0  0  0  0  0  0  0  0  0  0  0  0
   -2.3380   -0.0880   -2.4190 N   0  0  0  0  0  0  0  0  0  0  0  0
   -0.2120    0.0220   -3.0450 O   0  0  0  0  0  0  0  0  0  0  0  0
    2.6340    0.6730    0.1540 C   0  0  0  0  0  0  0  0  0  0  0  0
    1.9520   -1.4040    1.2550 C   0  0  0  0  0  0  0  0  0  0  0  0
   -3.9470   -1.5660   -1.3330 C   0  0  0  0  0  0  0  0  0  0  0  0
   -4.0080    0.9910   -1.0070 C   0  0  0  0  0  0  0  0  0  0  0  0
    2.9480   -0.4120    1.0470 C   0  0  0  0  0  0  0  0  0  0  0  0
    3.5850    1.7930   -0.1600 C   0  0  0  0  0  0  0  0  0  0  0  0
    4.1360   -0.5720    1.7220 N   0  0  0  0  0  0  0  0  0  0  0  0
    3.8990    2.4890    0.9820 F   0  0  0  0  0  0  0  0  0  0  0  0
    3.1280    2.7510   -1.0370 F   0  0  0  0  0  0  0  0  0  0  0  0
    4.7250    1.3010   -0.7500 F   0  0  0  0  0  0  0  0  0  0  0  0
    5.0720    0.1750    1.6550 O   0  0  0  0  0  0  0  0  0  0  0  0
    4.3690   -1.5790    2.5230 O   0  0  0  0  0  0  0  0  0  0  0  0
    1.1020    1.4620   -1.0930 H   0  0  0  0  0  0  0  0  0  0  0  0
    0.0260   -2.1030    0.8000 H   0  0  0  0  0  0  0  0  0  0  0  0
   -2.7140    0.0080   -3.3090 H   0  0  0  0  0  0  0  0  0  0  0  0
    2.1220   -2.1990    1.8760 H   0  0  0  0  0  0  0  0  0  0  0  0
   -3.3020   -2.4280   -1.5190 H   0  0  0  0  0  0  0  0  0  0  0  0
   -4.6710   -1.4990   -2.1490 H   0  0  0  0  0  0  0  0  0  0  0  0
   -4.4910   -1.7360   -0.4010 H   0  0  0  0  0  0  0  0  0  0  0  0
   -4.5560    0.8950   -0.0680 H   0  0  0  0  0  0  0  0  0  0  0  0
   -4.7300    1.0990   -1.8200 H   0  0  0  0  0  0  0  0  0  0  0  0
   -3.4040    1.9010   -0.9630 H   0  0  0  0  0  0  0  0  0  0  0  0
  1  3  1  0  0  0  0
  1  2  1  0  0  0  0
  1  4  1  0  0  0  0
  2  6  2  0  0  0  0
  2  5  1  0  0  0  0
  3  8  2  0  0  0  0
  3  7  1  0  0  0  0
  4  9  1  0  0  0  0
  4 10  2  0  0  0  0
  5 11  2  0  0  0  0
  5 23  1  0  0  0  0
  6 24  1  0  0  0  0
  6 12  1  0  0  0  0
  7 14  1  0  0  0  0
  7  9  1  0  0  0  0
  7 13  1  0  0  0  0
  9 25  1  0  0  0  0
 11 15  1  0  0  0  0
 11 16  1  0  0  0  0
 12 26  1  0  0  0  0
 12 15  2  0  0  0  0
 13 29  1  0  0  0  0
 13 27  1  0  0  0  0
 13 28  1  0  0  0  0
 14 32  1  0  0  0  0
 14 30  1  0  0  0  0
 14 31  1  0  0  0  0
 15 17  1  0  0  0  0
 16 18  1  0  0  0  0
 16 19  1  0  0  0  0
 16 20  1  0  0  0  0
 17 22  2  0  0  0  0
 17 21  1  0  0  0  0
M  END
