decoy-402
 OpenBabel06062114513D

 17 17  0  0  0  0  0  0  0  0999 V2000
   -0.0540    1.4260    0.0080 C   0  0  0  0  0  0  0  0  0  0  0  0
   -0.0580    0.0020    0.0010 C   0  0  0  0  0  0  0  0  0  0  0  0
    1.1720    2.1370    0.0010 C   0  0  0  0  0  0  0  0  0  0  0  0
   -1.6420    2.4180    0.0280 Br  0  0  0  0  0  0  0  0  0  0  0  0
    1.1850   -0.6830   -0.0130 C   0  0  0  0  0  0  0  0  0  0  0  0
   -1.3100   -0.8020    0.0090 C   0  0  0  0  0  0  0  0  0  0  0  0
    2.3950    1.4350   -0.0140 C   0  0  0  0  0  0  0  0  0  0  0  0
    1.1880    3.4840    0.0080 N   0  0  0  0  0  0  0  0  0  0  0  0
    2.3940    0.0330   -0.0210 C   0  0  0  0  0  0  0  0  0  0  0  0
    1.3150   -2.5460   -0.0240 Br  0  0  0  0  0  0  0  0  0  0  0  0
    4.0390    2.3150   -0.0240 Br  0  0  0  0  0  0  0  0  0  0  0  0
   -2.2180   -0.2030    0.0200 H   0  0  0  0  0  0  0  0  0  0  0  0
   -1.3460   -1.4310   -0.8820 H   0  0  0  0  0  0  0  0  0  0  0  0
   -1.3300   -1.4400    0.8940 H   0  0  0  0  0  0  0  0  0  0  0  0
    0.3580    3.9840    0.0180 H   0  0  0  0  0  0  0  0  0  0  0  0
    2.0320    3.9620    0.0020 H   0  0  0  0  0  0  0  0  0  0  0  0
    3.2830   -0.4720   -0.0310 H   0  0  0  0  0  0  0  0  0  0  0  0
  1  4  1  0  0  0  0
  1  2  2  0  0  0  0
  1  3  1  0  0  0  0
  2  6  1  0  0  0  0
  2  5  1  0  0  0  0
  3  8  1  0  0  0  0
  3  7  2  0  0  0  0
  5  9  2  0  0  0  0
  5 10  1  0  0  0  0
  6 12  1  0  0  0  0
  6 14  1  0  0  0  0
  6 13  1  0  0  0  0
  7  9  1  0  0  0  0
  7 11  1  0  0  0  0
  8 15  1  0  0  0  0
  8 16  1  0  0  0  0
  9 17  1  0  0  0  0
M  END
