decoy-270
 OpenBabel06062114513D

 75 79  0  0  0  0  0  0  0  0999 V2000
   -1.9220   -0.8370   -1.9870 C   0  0  0  0  0  0  0  0  0  0  0  0
   -1.8100    0.4260   -1.3480 C   0  0  0  0  0  0  0  0  0  0  0  0
   -0.7710   -1.2920   -2.6480 C   0  0  0  0  0  0  0  0  0  0  0  0
   -3.1360   -1.5600   -1.8520 C   0  0  0  0  0  0  0  0  0  0  0  0
   -0.6420    1.1600   -1.4230 O   0  0  0  0  0  0  0  0  0  0  0  0
   -2.8730    0.9460   -0.5910 C   0  0  0  0  0  0  0  0  0  0  0  0
    0.4300   -0.6710   -2.4590 C   0  0  0  0  0  0  0  0  0  0  0  0
   -0.7950   -2.2780   -3.3710 O   0  0  0  0  0  0  0  0  0  0  0  0
   -4.1870   -1.0360   -1.0720 C   0  0  0  0  0  0  0  0  0  0  0  0
   -3.3340   -2.7790   -2.4170 O   0  0  0  0  0  0  0  0  0  0  0  0
    0.4840    0.5100   -1.8060 C   0  0  0  0  0  0  0  0  0  0  0  0
   -4.0690    0.2150   -0.4370 C   0  0  0  0  0  0  0  0  0  0  0  0
    1.6820    1.1150   -1.4720 C   0  0  0  0  0  0  0  0  0  0  0  0
   -5.1050    0.6150    0.3710 O   0  0  0  0  0  0  0  0  0  0  0  0
    2.5760    0.4960   -0.5670 C   0  0  0  0  0  0  0  0  0  0  0  0
    1.9990    2.3940   -1.9820 C   0  0  0  0  0  0  0  0  0  0  0  0
   -5.6360    1.9460    0.2020 C   0  0  0  0  0  0  0  0  0  0  0  0
    3.7680    1.1410   -0.1810 C   0  0  0  0  0  0  0  0  0  0  0  0
    3.1880    3.0390   -1.5970 C   0  0  0  0  0  0  0  0  0  0  0  0
   -4.8580    2.9470    0.8990 O   0  0  0  0  0  0  0  0  0  0  0  0
   -7.1190    1.9730    0.6620 C   0  0  0  0  0  0  0  0  0  0  0  0
    4.0680    2.4250   -0.6830 C   0  0  0  0  0  0  0  0  0  0  0  0
    4.6240    0.5390    0.6840 O   0  0  0  0  0  0  0  0  0  0  0  0
   -4.8800    2.9710    2.3470 C   0  0  0  0  0  0  0  0  0  0  0  0
   -7.2410    1.9120    2.2090 C   0  0  0  0  0  0  0  0  0  0  0  0
   -7.7520    3.1580    0.1790 O   0  0  0  0  0  0  0  0  0  0  0  0
    5.2280    3.0590   -0.3260 O   0  0  0  0  0  0  0  0  0  0  0  0
   -6.3410    2.9740    2.8990 C   0  0  0  0  0  0  0  0  0  0  0  0
   -3.9580    1.9060    3.0030 C   0  0  0  0  0  0  0  0  0  0  0  0
   -6.9160    0.6060    2.6840 O   0  0  0  0  0  0  0  0  0  0  0  0
    5.0780    3.9030    0.8290 C   0  0  0  0  0  0  0  0  0  0  0  0
   -6.9200    4.2650    2.7030 O   0  0  0  0  0  0  0  0  0  0  0  0
   -2.6170    2.0540    2.4980 O   0  0  0  0  0  0  0  0  0  0  0  0
   -1.6140    1.2160    3.1160 C   0  0  0  0  0  0  0  0  0  0  0  0
   -0.2830    1.3120    2.3220 C   0  0  0  0  0  0  0  0  0  0  0  0
   -1.3880    1.5670    4.5000 O   0  0  0  0  0  0  0  0  0  0  0  0
    0.3620    2.7130    2.4930 C   0  0  0  0  0  0  0  0  0  0  0  0
    0.6130    0.2840    2.7490 O   0  0  0  0  0  0  0  0  0  0  0  0
   -0.8660    2.8960    4.7310 C   0  0  0  0  0  0  0  0  0  0  0  0
    0.4930    3.0960    3.9940 C   0  0  0  0  0  0  0  0  0  0  0  0
    1.6370    2.7390    1.8540 O   0  0  0  0  0  0  0  0  0  0  0  0
   -0.7390    3.0900    6.2600 C   0  0  0  0  0  0  0  0  0  0  0  0
    0.9200    4.4530    4.1120 O   0  0  0  0  0  0  0  0  0  0  0  0
   -2.7590    1.8510   -0.1370 H   0  0  0  0  0  0  0  0  0  0  0  0
    1.2700   -1.1140   -2.7630 H   0  0  0  0  0  0  0  0  0  0  0  0
   -5.0470   -1.5780   -0.9560 H   0  0  0  0  0  0  0  0  0  0  0  0
   -2.9370   -2.7210   -3.3100 H   0  0  0  0  0  0  0  0  0  0  0  0
    2.3570   -0.4240   -0.1760 H   0  0  0  0  0  0  0  0  0  0  0  0
    1.3670    2.8670   -2.6340 H   0  0  0  0  0  0  0  0  0  0  0  0
   -5.6250    2.2060   -0.8620 H   0  0  0  0  0  0  0  0  0  0  0  0
    3.4080    3.9640   -1.9750 H   0  0  0  0  0  0  0  0  0  0  0  0
   -7.6510    1.1240    0.2230 H   0  0  0  0  0  0  0  0  0  0  0  0
    4.2200   -0.3260    0.9030 H   0  0  0  0  0  0  0  0  0  0  0  0
   -4.4360    3.9330    2.6210 H   0  0  0  0  0  0  0  0  0  0  0  0
   -8.2830    2.0920    2.4910 H   0  0  0  0  0  0  0  0  0  0  0  0
   -7.6880    3.1020   -0.7980 H   0  0  0  0  0  0  0  0  0  0  0  0
   -6.3370    2.7960    3.9780 H   0  0  0  0  0  0  0  0  0  0  0  0
   -3.9660    2.0560    4.0860 H   0  0  0  0  0  0  0  0  0  0  0  0
   -4.3210    0.8990    2.7950 H   0  0  0  0  0  0  0  0  0  0  0  0
   -7.5590    0.0080    2.2470 H   0  0  0  0  0  0  0  0  0  0  0  0
    4.3520    4.6990    0.6490 H   0  0  0  0  0  0  0  0  0  0  0  0
    4.7770    3.3260    1.7080 H   0  0  0  0  0  0  0  0  0  0  0  0
    6.0430    4.3640    1.0400 H   0  0  0  0  0  0  0  0  0  0  0  0
   -6.3540    4.8810    3.2150 H   0  0  0  0  0  0  0  0  0  0  0  0
   -1.9480    0.1750    3.0810 H   0  0  0  0  0  0  0  0  0  0  0  0
   -0.4830    1.1380    1.2650 H   0  0  0  0  0  0  0  0  0  0  0  0
   -0.2700    3.4530    1.9910 H   0  0  0  0  0  0  0  0  0  0  0  0
    0.7530    0.4420    3.7060 H   0  0  0  0  0  0  0  0  0  0  0  0
   -1.5850    3.6360    4.3650 H   0  0  0  0  0  0  0  0  0  0  0  0
    1.2530    2.4610    4.4580 H   0  0  0  0  0  0  0  0  0  0  0  0
    1.9500    3.6630    1.9440 H   0  0  0  0  0  0  0  0  0  0  0  0
   -0.3850    4.0960    6.4910 H   0  0  0  0  0  0  0  0  0  0  0  0
   -1.7130    2.9500    6.7340 H   0  0  0  0  0  0  0  0  0  0  0  0
   -0.0400    2.3640    6.6810 H   0  0  0  0  0  0  0  0  0  0  0  0
    1.7990    4.4840    3.6780 H   0  0  0  0  0  0  0  0  0  0  0  0
  1  4  2  0  0  0  0
  1  2  1  0  0  0  0
  1  3  1  0  0  0  0
  2  6  2  0  0  0  0
  2  5  1  0  0  0  0
  3  7  1  0  0  0  0
  3  8  2  0  0  0  0
  4  9  1  0  0  0  0
  4 10  1  0  0  0  0
  5 11  1  0  0  0  0
  6 12  1  0  0  0  0
  6 44  1  0  0  0  0
  7 11  2  0  0  0  0
  7 45  1  0  0  0  0
  9 46  1  0  0  0  0
  9 12  2  0  0  0  0
 10 47  1  0  0  0  0
 11 13  1  0  0  0  0
 12 14  1  0  0  0  0
 13 15  2  0  0  0  0
 13 16  1  0  0  0  0
 14 17  1  0  0  0  0
 15 18  1  0  0  0  0
 15 48  1  0  0  0  0
 16 19  2  0  0  0  0
 16 49  1  0  0  0  0
 17 21  1  0  0  0  0
 17 20  1  0  0  0  0
 17 50  1  0  0  0  0
 18 23  1  0  0  0  0
 18 22  2  0  0  0  0
 19 22  1  0  0  0  0
 19 51  1  0  0  0  0
 20 24  1  0  0  0  0
 21 25  1  0  0  0  0
 21 26  1  0  0  0  0
 21 52  1  0  0  0  0
 22 27  1  0  0  0  0
 23 53  1  0  0  0  0
 24 54  1  0  0  0  0
 24 28  1  0  0  0  0
 24 29  1  0  0  0  0
 25 55  1  0  0  0  0
 25 30  1  0  0  0  0
 25 28  1  0  0  0  0
 26 56  1  0  0  0  0
 27 31  1  0  0  0  0
 28 57  1  0  0  0  0
 28 32  1  0  0  0  0
 29 58  1  0  0  0  0
 29 33  1  0  0  0  0
 29 59  1  0  0  0  0
 30 60  1  0  0  0  0
 31 63  1  0  0  0  0
 31 62  1  0  0  0  0
 31 61  1  0  0  0  0
 32 64  1  0  0  0  0
 33 34  1  0  0  0  0
 34 35  1  0  0  0  0
 34 36  1  0  0  0  0
 34 65  1  0  0  0  0
 35 37  1  0  0  0  0
 35 38  1  0  0  0  0
 35 66  1  0  0  0  0
 36 39  1  0  0  0  0
 37 40  1  0  0  0  0
 37 41  1  0  0  0  0
 37 67  1  0  0  0  0
 38 68  1  0  0  0  0
 39 40  1  0  0  0  0
 39 42  1  0  0  0  0
 39 69  1  0  0  0  0
 40 43  1  0  0  0  0
 40 70  1  0  0  0  0
 41 71  1  0  0  0  0
 42 72  1  0  0  0  0
 42 74  1  0  0  0  0
 42 73  1  0  0  0  0
 43 75  1  0  0  0  0
M  END
