decoy-280
 OpenBabel06062114513D

 41 43  0  0  0  0  0  0  0  0999 V2000
    1.1960   -0.7290   -0.3850 C   0  0  0  0  0  0  0  0  0  0  0  0
    1.1300    0.3170   -1.3260 C   0  0  0  0  0  0  0  0  0  0  0  0
    2.4550   -1.1010    0.1260 C   0  0  0  0  0  0  0  0  0  0  0  0
    0.1000   -1.3910    0.0700 N   0  0  0  0  0  0  0  0  0  0  0  0
    2.3020    0.9750   -1.7340 C   0  0  0  0  0  0  0  0  0  0  0  0
   -0.4100    0.7760   -1.9810 S   0  0  0  0  0  0  0  0  0  0  0  0
    3.6570   -0.4550   -0.2690 C   0  0  0  0  0  0  0  0  0  0  0  0
   -1.2730   -1.1230   -0.2570 C   0  0  0  0  0  0  0  0  0  0  0  0
    3.5680    0.6010   -1.2290 C   0  0  0  0  0  0  0  0  0  0  0  0
   -1.4560   -0.4500   -1.5030 N   0  0  0  0  0  0  0  0  0  0  0  0
   -0.8890    2.1970   -1.4520 O   0  0  0  0  0  0  0  0  0  0  0  0
   -0.2970    0.7480   -3.5670 O   0  0  0  0  0  0  0  0  0  0  0  0
    4.9580   -0.9160    0.3180 C   0  0  0  0  0  0  0  0  0  0  0  0
   -1.9440   -0.3540    0.9160 C   0  0  0  0  0  0  0  0  0  0  0  0
    4.9350    1.5370   -1.8060 S   0  0  0  0  0  0  0  0  0  0  0  0
    5.7210   -1.5140   -0.6530 F   0  0  0  0  0  0  0  0  0  0  0  0
    4.8560   -1.8460    1.3270 F   0  0  0  0  0  0  0  0  0  0  0  0
    5.6530    0.1300    0.8730 F   0  0  0  0  0  0  0  0  0  0  0  0
   -3.3940   -0.0850    0.7030 C   0  0  0  0  0  0  0  0  0  0  0  0
    4.6220    2.4660   -3.1730 N   0  0  0  0  0  0  0  0  0  0  0  0
    6.2840    0.7450   -2.0900 O   0  0  0  0  0  0  0  0  0  0  0  0
    5.3120    2.6020   -0.6870 O   0  0  0  0  0  0  0  0  0  0  0  0
   -4.3270   -1.1490    0.7090 C   0  0  0  0  0  0  0  0  0  0  0  0
   -3.8700    1.2310    0.4930 C   0  0  0  0  0  0  0  0  0  0  0  0
   -5.6980   -0.9050    0.5030 C   0  0  0  0  0  0  0  0  0  0  0  0
   -5.2400    1.4760    0.2860 C   0  0  0  0  0  0  0  0  0  0  0  0
   -6.1550    0.4080    0.2910 C   0  0  0  0  0  0  0  0  0  0  0  0
    2.4830   -1.8650    0.8050 H   0  0  0  0  0  0  0  0  0  0  0  0
    0.2530   -2.0710    0.7450 H   0  0  0  0  0  0  0  0  0  0  0  0
    2.2200    1.7390   -2.4080 H   0  0  0  0  0  0  0  0  0  0  0  0
   -1.7570   -2.0960   -0.3600 H   0  0  0  0  0  0  0  0  0  0  0  0
   -2.0300   -0.8550   -2.1720 H   0  0  0  0  0  0  0  0  0  0  0  0
   -1.8350   -0.9330    1.8380 H   0  0  0  0  0  0  0  0  0  0  0  0
   -1.4010    0.5830    1.0690 H   0  0  0  0  0  0  0  0  0  0  0  0
    4.4900    3.4230   -3.0890 H   0  0  0  0  0  0  0  0  0  0  0  0
    4.5650    2.0430   -4.0440 H   0  0  0  0  0  0  0  0  0  0  0  0
   -4.0150   -2.1100    0.8660 H   0  0  0  0  0  0  0  0  0  0  0  0
   -3.2210    2.0220    0.4830 H   0  0  0  0  0  0  0  0  0  0  0  0
   -6.3630   -1.6820    0.5090 H   0  0  0  0  0  0  0  0  0  0  0  0
   -5.5720    2.4310    0.1320 H   0  0  0  0  0  0  0  0  0  0  0  0
   -7.1500    0.5850    0.1410 H   0  0  0  0  0  0  0  0  0  0  0  0
  1  4  1  0  0  0  0
  1  3  2  0  0  0  0
  1  2  1  0  0  0  0
  2  5  2  0  0  0  0
  2  6  1  0  0  0  0
  3 28  1  0  0  0  0
  3  7  1  0  0  0  0
  4 29  1  0  0  0  0
  4  8  1  0  0  0  0
  5  9  1  0  0  0  0
  5 30  1  0  0  0  0
  6 10  1  0  0  0  0
  6 11  2  0  0  0  0
  6 12  2  0  0  0  0
  7 13  1  0  0  0  0
  7  9  2  0  0  0  0
  8 31  1  0  0  0  0
  8 14  1  0  0  0  0
  8 10  1  0  0  0  0
  9 15  1  0  0  0  0
 10 32  1  0  0  0  0
 13 18  1  0  0  0  0
 13 17  1  0  0  0  0
 13 16  1  0  0  0  0
 14 34  1  0  0  0  0
 14 33  1  0  0  0  0
 14 19  1  0  0  0  0
 15 22  2  0  0  0  0
 15 20  1  0  0  0  0
 15 21  2  0  0  0  0
 19 23  2  0  0  0  0
 19 24  1  0  0  0  0
 20 35  1  0  0  0  0
 20 36  1  0  0  0  0
 23 37  1  0  0  0  0
 23 25  1  0  0  0  0
 24 26  2  0  0  0  0
 24 38  1  0  0  0  0
 25 39  1  0  0  0  0
 25 27  2  0  0  0  0
 26 27  1  0  0  0  0
 26 40  1  0  0  0  0
 27 41  1  0  0  0  0
M  END
