decoy-763
 OpenBabel06062114513D

 24 24  0  0  0  0  0  0  0  0999 V2000
    0.3450    0.6710   -0.1780 C   0  0  0  0  0  0  0  0  0  0  0  0
   -1.0790    0.9650   -1.1350 S   0  0  0  0  0  0  0  0  0  0  0  0
    1.5350    0.2130   -0.7810 C   0  0  0  0  0  0  0  0  0  0  0  0
    0.3120    0.8830    1.2160 C   0  0  0  0  0  0  0  0  0  0  0  0
   -2.4220    0.1610   -0.5070 N   0  0  0  0  0  0  0  0  0  0  0  0
   -0.9220    0.6630   -2.6890 O   0  0  0  0  0  0  0  0  0  0  0  0
   -1.4130    2.5150   -1.0120 O   0  0  0  0  0  0  0  0  0  0  0  0
    2.6800   -0.0300    0.0020 C   0  0  0  0  0  0  0  0  0  0  0  0
    1.4560    0.6400    1.9990 C   0  0  0  0  0  0  0  0  0  0  0  0
   -2.5470   -1.1540   -0.4390 C   0  0  0  0  0  0  0  0  0  0  0  0
    2.6440    0.1830    1.3950 C   0  0  0  0  0  0  0  0  0  0  0  0
   -3.7510   -1.7100    0.1320 C   0  0  0  0  0  0  0  0  0  0  0  0
   -1.6690   -1.9060   -0.8440 O   0  0  0  0  0  0  0  0  0  0  0  0
    3.7370   -0.0490    2.1420 N   0  0  0  0  0  0  0  0  0  0  0  0
    1.5780    0.0510   -1.7890 H   0  0  0  0  0  0  0  0  0  0  0  0
   -0.5430    1.2140    1.6690 H   0  0  0  0  0  0  0  0  0  0  0  0
   -3.1520    0.7040   -0.1680 H   0  0  0  0  0  0  0  0  0  0  0  0
    3.5360   -0.3630   -0.4480 H   0  0  0  0  0  0  0  0  0  0  0  0
    1.4180    0.7980    3.0100 H   0  0  0  0  0  0  0  0  0  0  0  0
   -3.8610   -1.3700    1.1630 H   0  0  0  0  0  0  0  0  0  0  0  0
   -3.7290   -2.8030    0.1300 H   0  0  0  0  0  0  0  0  0  0  0  0
   -4.6180   -1.3820   -0.4440 H   0  0  0  0  0  0  0  0  0  0  0  0
    3.7110    0.0970    3.1010 H   0  0  0  0  0  0  0  0  0  0  0  0
    4.5550   -0.3650    1.7250 H   0  0  0  0  0  0  0  0  0  0  0  0
  1  4  2  0  0  0  0
  1  2  1  0  0  0  0
  1  3  1  0  0  0  0
  2  7  2  0  0  0  0
  2  5  1  0  0  0  0
  2  6  2  0  0  0  0
  3  8  2  0  0  0  0
  3 15  1  0  0  0  0
  4 16  1  0  0  0  0
  4  9  1  0  0  0  0
  5 10  1  0  0  0  0
  5 17  1  0  0  0  0
  8 11  1  0  0  0  0
  8 18  1  0  0  0  0
  9 19  1  0  0  0  0
  9 11  2  0  0  0  0
 10 12  1  0  0  0  0
 10 13  2  0  0  0  0
 11 14  1  0  0  0  0
 12 20  1  0  0  0  0
 12 21  1  0  0  0  0
 12 22  1  0  0  0  0
 14 23  1  0  0  0  0
 14 24  1  0  0  0  0
M  END
