decoy-1011
 OpenBabel06062114513D

 30 31  0  0  0  0  0  0  0  0999 V2000
   -0.0520    1.5580    0.3160 C   0  0  0  0  0  0  0  0  0  0  0  0
   -0.0080    0.2050   -0.1170 C   0  0  0  0  0  0  0  0  0  0  0  0
    1.0590    2.3510    0.1880 N   0  0  0  0  0  0  0  0  0  0  0  0
   -1.2250    2.0340    0.9480 C   0  0  0  0  0  0  0  0  0  0  0  0
   -1.1480   -0.6130    0.0680 C   0  0  0  0  0  0  0  0  0  0  0  0
    1.1680   -0.4110   -0.7880 C   0  0  0  0  0  0  0  0  0  0  0  0
    1.1350    3.6470   -0.0920 C   0  0  0  0  0  0  0  0  0  0  0  0
   -2.3550    1.2140    1.1250 C   0  0  0  0  0  0  0  0  0  0  0  0
   -2.3250   -0.1320    0.6780 C   0  0  0  0  0  0  0  0  0  0  0  0
    2.3780    4.2410   -0.1990 C   0  0  0  0  0  0  0  0  0  0  0  0
    0.1480    4.3300   -0.3360 O   0  0  0  0  0  0  0  0  0  0  0  0
   -3.6980    1.9110    1.8960 Cl  0  0  0  0  0  0  0  0  0  0  0  0
   -3.3320   -1.0340    0.7790 N   0  0  0  0  0  0  0  0  0  0  0  0
    2.7040    5.3650    0.5960 C   0  0  0  0  0  0  0  0  0  0  0  0
    3.3440    3.7410   -1.1050 C   0  0  0  0  0  0  0  0  0  0  0  0
   -4.4290   -0.9110    1.2440 N   0  0  0  0  0  0  0  0  0  0  0  0
    3.9690    5.9730    0.4900 C   0  0  0  0  0  0  0  0  0  0  0  0
    4.6080    4.3510   -1.2090 C   0  0  0  0  0  0  0  0  0  0  0  0
    4.9210    5.4660   -0.4120 C   0  0  0  0  0  0  0  0  0  0  0  0
    1.9100    1.8910    0.2500 H   0  0  0  0  0  0  0  0  0  0  0  0
   -1.2480    2.9890    1.3140 H   0  0  0  0  0  0  0  0  0  0  0  0
   -1.1180   -1.5860   -0.2530 H   0  0  0  0  0  0  0  0  0  0  0  0
    1.9930    0.2830   -0.9440 H   0  0  0  0  0  0  0  0  0  0  0  0
    1.5380   -1.2430   -0.1850 H   0  0  0  0  0  0  0  0  0  0  0  0
    0.8730   -0.7940   -1.7670 H   0  0  0  0  0  0  0  0  0  0  0  0
    2.0250    5.7470    1.2610 H   0  0  0  0  0  0  0  0  0  0  0  0
    3.1340    2.9330   -1.6970 H   0  0  0  0  0  0  0  0  0  0  0  0
    4.1960    6.7840    1.0700 H   0  0  0  0  0  0  0  0  0  0  0  0
    5.3000    3.9830   -1.8670 H   0  0  0  0  0  0  0  0  0  0  0  0
    5.8390    5.9090   -0.4890 H   0  0  0  0  0  0  0  0  0  0  0  0
  1  4  2  0  0  0  0
  1  2  1  0  0  0  0
  1  3  1  0  0  0  0
  2  5  2  0  0  0  0
  2  6  1  0  0  0  0
  3 20  1  0  0  0  0
  3  7  1  0  0  0  0
  4  8  1  0  0  0  0
  4 21  1  0  0  0  0
  5  9  1  0  0  0  0
  5 22  1  0  0  0  0
  6 24  1  0  0  0  0
  6 23  1  0  0  0  0
  6 25  1  0  0  0  0
  7 10  1  0  0  0  0
  7 11  2  0  0  0  0
  8 12  1  0  0  0  0
  8  9  2  0  0  0  0
  9 13  1  0  0  0  0
 10 14  2  0  0  0  0
 10 15  1  0  0  0  0
 13 16  2  0  0  0  0
 14 26  1  0  0  0  0
 14 17  1  0  0  0  0
 15 18  2  0  0  0  0
 15 27  1  0  0  0  0
 17 28  1  0  0  0  0
 17 19  2  0  0  0  0
 18 19  1  0  0  0  0
 18 29  1  0  0  0  0
 19 30  1  0  0  0  0
M  END
