decoy-248
 OpenBabel06062114513D

 28 29  0  0  0  0  0  0  0  0999 V2000
   -0.0500    1.5360   -0.0200 C   0  0  0  0  0  0  0  0  0  0  0  0
   -0.0420    0.0430   -0.0200 C   0  0  0  0  0  0  0  0  0  0  0  0
    1.1640    2.2660   -0.0110 C   0  0  0  0  0  0  0  0  0  0  0  0
   -1.2670    2.2610   -0.0190 C   0  0  0  0  0  0  0  0  0  0  0  0
   -0.6570   -0.5790    1.2710 C   0  0  0  0  0  0  0  0  0  0  0  0
   -0.9630   -0.5860   -1.6020 Br  0  0  0  0  0  0  0  0  0  0  0  0
    1.1620    3.6730    0.0010 C   0  0  0  0  0  0  0  0  0  0  0  0
   -1.2710    3.6680   -0.0080 C   0  0  0  0  0  0  0  0  0  0  0  0
   -0.6500   -2.0730    1.2700 C   0  0  0  0  0  0  0  0  0  0  0  0
    0.2650    0.0480    2.8540 Br  0  0  0  0  0  0  0  0  0  0  0  0
   -0.0560    4.3750    0.0030 C   0  0  0  0  0  0  0  0  0  0  0  0
   -1.8640   -2.8020    1.2630 C   0  0  0  0  0  0  0  0  0  0  0  0
    0.5670   -2.7990    1.2670 C   0  0  0  0  0  0  0  0  0  0  0  0
   -1.8630   -4.2090    1.2510 C   0  0  0  0  0  0  0  0  0  0  0  0
    0.5700   -4.2050    1.2560 C   0  0  0  0  0  0  0  0  0  0  0  0
   -0.6450   -4.9110    1.2470 C   0  0  0  0  0  0  0  0  0  0  0  0
    0.9860   -0.3170   -0.1100 H   0  0  0  0  0  0  0  0  0  0  0  0
    2.0630    1.7790   -0.0070 H   0  0  0  0  0  0  0  0  0  0  0  0
   -2.1630    1.7690   -0.0290 H   0  0  0  0  0  0  0  0  0  0  0  0
   -1.6850   -0.2190    1.3610 H   0  0  0  0  0  0  0  0  0  0  0  0
    2.0460    4.1860    0.0100 H   0  0  0  0  0  0  0  0  0  0  0  0
   -2.1570    4.1780   -0.0070 H   0  0  0  0  0  0  0  0  0  0  0  0
   -0.0580    5.3970    0.0110 H   0  0  0  0  0  0  0  0  0  0  0  0
   -2.7630   -2.3140    1.2620 H   0  0  0  0  0  0  0  0  0  0  0  0
    1.4630   -2.3060    1.2770 H   0  0  0  0  0  0  0  0  0  0  0  0
   -2.7480   -4.7210    1.2440 H   0  0  0  0  0  0  0  0  0  0  0  0
    1.4560   -4.7150    1.2550 H   0  0  0  0  0  0  0  0  0  0  0  0
   -0.6440   -5.9340    1.2390 H   0  0  0  0  0  0  0  0  0  0  0  0
  1  2  1  0  0  0  0
  1  4  2  0  0  0  0
  1  3  1  0  0  0  0
  2 17  1  0  0  0  0
  2  5  1  0  0  0  0
  2  6  1  0  0  0  0
  3 18  1  0  0  0  0
  3  7  2  0  0  0  0
  4  8  1  0  0  0  0
  4 19  1  0  0  0  0
  5 20  1  0  0  0  0
  5 10  1  0  0  0  0
  5  9  1  0  0  0  0
  7 11  1  0  0  0  0
  7 21  1  0  0  0  0
  8 22  1  0  0  0  0
  8 11  2  0  0  0  0
  9 12  2  0  0  0  0
  9 13  1  0  0  0  0
 11 23  1  0  0  0  0
 12 14  1  0  0  0  0
 12 24  1  0  0  0  0
 13 25  1  0  0  0  0
 13 15  2  0  0  0  0
 14 16  2  0  0  0  0
 14 26  1  0  0  0  0
 15 16  1  0  0  0  0
 15 27  1  0  0  0  0
 16 28  1  0  0  0  0
M  END
