decoy-505
 OpenBabel06062114513D

 33 34  0  0  0  0  0  0  0  0999 V2000
    0.2790    1.3100    0.1030 N   0  0  0  0  0  0  0  0  0  0  0  0
    0.1610   -0.0600   -0.0220 C   0  0  0  0  0  0  0  0  0  0  0  0
    1.5310    2.0150   -0.1190 C   0  0  0  0  0  0  0  0  0  0  0  0
   -0.8270    2.1680    0.4910 C   0  0  0  0  0  0  0  0  0  0  0  0
   -0.7440   -0.8130    0.7760 C   0  0  0  0  0  0  0  0  0  0  0  0
    0.9420   -0.7930   -0.9580 C   0  0  0  0  0  0  0  0  0  0  0  0
    1.9180    2.8250    1.1530 C   0  0  0  0  0  0  0  0  0  0  0  0
   -0.4710    2.9590    1.7790 C   0  0  0  0  0  0  0  0  0  0  0  0
   -0.8620   -2.2090    0.6500 C   0  0  0  0  0  0  0  0  0  0  0  0
    0.8250   -2.1890   -1.0920 C   0  0  0  0  0  0  0  0  0  0  0  0
    0.8270    3.7370    1.6820 *   0  0  0  0  0  0  0  0  0  0  0  0
   -0.0770   -2.8990   -0.2860 C   0  0  0  0  0  0  0  0  0  0  0  0
    1.2120    4.2240    3.0600 C   0  0  0  0  0  0  0  0  0  0  0  0
    0.6700    4.9560    0.7990 C   0  0  0  0  0  0  0  0  0  0  0  0
    2.3730    1.3510   -0.3260 H   0  0  0  0  0  0  0  0  0  0  0  0
    1.4310    2.6820   -0.9790 H   0  0  0  0  0  0  0  0  0  0  0  0
   -1.0300    2.8670   -0.3240 H   0  0  0  0  0  0  0  0  0  0  0  0
   -1.7680    1.6380    0.6480 H   0  0  0  0  0  0  0  0  0  0  0  0
   -1.2960   -0.3630    1.5080 H   0  0  0  0  0  0  0  0  0  0  0  0
    1.5720   -0.3130   -1.6020 H   0  0  0  0  0  0  0  0  0  0  0  0
    2.1860    2.0870    1.9180 H   0  0  0  0  0  0  0  0  0  0  0  0
    2.8280    3.3950    0.9390 H   0  0  0  0  0  0  0  0  0  0  0  0
   -1.3060    3.6250    2.0210 H   0  0  0  0  0  0  0  0  0  0  0  0
   -0.4120    2.2230    2.5890 H   0  0  0  0  0  0  0  0  0  0  0  0
   -1.5120   -2.7250    1.2490 H   0  0  0  0  0  0  0  0  0  0  0  0
    1.3900   -2.6860   -1.7840 H   0  0  0  0  0  0  0  0  0  0  0  0
   -0.1620   -3.9140   -0.3800 H   0  0  0  0  0  0  0  0  0  0  0  0
    2.1530    4.7810    3.0390 H   0  0  0  0  0  0  0  0  0  0  0  0
    0.4460    4.8840    3.4790 H   0  0  0  0  0  0  0  0  0  0  0  0
    1.3430    3.3950    3.7610 H   0  0  0  0  0  0  0  0  0  0  0  0
    0.4110    4.6970   -0.2270 H   0  0  0  0  0  0  0  0  0  0  0  0
   -0.1160    5.6180    1.1730 H   0  0  0  0  0  0  0  0  0  0  0  0
    1.5960    5.5370    0.7570 H   0  0  0  0  0  0  0  0  0  0  0  0
  1  4  1  0  0  0  0
  1  2  1  0  0  0  0
  1  3  1  0  0  0  0
  2  5  2  0  0  0  0
  2  6  1  0  0  0  0
  3  7  1  0  0  0  0
  3 15  1  0  0  0  0
  3 16  1  0  0  0  0
  4 18  1  0  0  0  0
  4  8  1  0  0  0  0
  4 17  1  0  0  0  0
  5 19  1  0  0  0  0
  5  9  1  0  0  0  0
  6 10  2  0  0  0  0
  6 20  1  0  0  0  0
  7 11  1  0  0  0  0
  7 21  1  0  0  0  0
  7 22  1  0  0  0  0
  8 23  1  0  0  0  0
  8 24  1  0  0  0  0
  8 11  1  0  0  0  0
  9 25  1  0  0  0  0
  9 12  2  0  0  0  0
 10 12  1  0  0  0  0
 10 26  1  0  0  0  0
 11 13  1  0  0  0  0
 11 14  1  0  0  0  0
 12 27  1  0  0  0  0
 13 29  1  0  0  0  0
 13 30  1  0  0  0  0
 13 28  1  0  0  0  0
 14 32  1  0  0  0  0
 14 31  1  0  0  0  0
 14 33  1  0  0  0  0
M  END
