decoy-382
 OpenBabel06062114513D

 34 35  0  0  0  0  0  0  0  0999 V2000
    0.0180    1.4490   -0.1090 C   0  0  0  0  0  0  0  0  0  0  0  0
   -0.0360    0.0240   -0.1200 C   0  0  0  0  0  0  0  0  0  0  0  0
    1.1560    2.1310    0.3860 C   0  0  0  0  0  0  0  0  0  0  0  0
   -1.0660    2.2220   -0.5900 C   0  0  0  0  0  0  0  0  0  0  0  0
   -1.1860   -0.6650    0.3380 C   0  0  0  0  0  0  0  0  0  0  0  0
    1.0590   -0.7430   -0.5860 C   0  0  0  0  0  0  0  0  0  0  0  0
    1.2220    3.5400    0.3890 C   0  0  0  0  0  0  0  0  0  0  0  0
   -1.0170    3.6280   -0.5730 C   0  0  0  0  0  0  0  0  0  0  0  0
   -1.2520   -2.0740    0.3200 C   0  0  0  0  0  0  0  0  0  0  0  0
    1.0090   -2.1480   -0.5900 C   0  0  0  0  0  0  0  0  0  0  0  0
    0.1220    4.2920   -0.0780 C   0  0  0  0  0  0  0  0  0  0  0  0
    2.3290    4.1610    0.9060 O   0  0  0  0  0  0  0  0  0  0  0  0
   -0.1410   -2.8190   -0.1320 C   0  0  0  0  0  0  0  0  0  0  0  0
   -2.3710   -2.7030    0.8010 O   0  0  0  0  0  0  0  0  0  0  0  0
    0.1460    5.6370   -0.0560 N   0  0  0  0  0  0  0  0  0  0  0  0
    3.3710    4.3650   -0.0640 C   0  0  0  0  0  0  0  0  0  0  0  0
   -0.1650   -4.1650   -0.1300 N   0  0  0  0  0  0  0  0  0  0  0  0
   -3.3890   -2.8920   -0.1960 C   0  0  0  0  0  0  0  0  0  0  0  0
    1.9480    1.6040    0.7630 H   0  0  0  0  0  0  0  0  0  0  0  0
   -1.9010    1.7680   -0.9690 H   0  0  0  0  0  0  0  0  0  0  0  0
   -1.9870   -0.1430    0.7030 H   0  0  0  0  0  0  0  0  0  0  0  0
    1.9020   -0.2830   -0.9380 H   0  0  0  0  0  0  0  0  0  0  0  0
   -1.8160    4.1630   -0.9230 H   0  0  0  0  0  0  0  0  0  0  0  0
    1.8160   -2.6790   -0.9290 H   0  0  0  0  0  0  0  0  0  0  0  0
    0.9250    6.1050    0.2840 H   0  0  0  0  0  0  0  0  0  0  0  0
   -0.6160    6.1430   -0.3800 H   0  0  0  0  0  0  0  0  0  0  0  0
    4.2010    4.8690    0.4310 H   0  0  0  0  0  0  0  0  0  0  0  0
    3.7360    3.4140   -0.4600 H   0  0  0  0  0  0  0  0  0  0  0  0
    3.0300    4.9970   -0.8880 H   0  0  0  0  0  0  0  0  0  0  0  0
   -0.9520   -4.6380    0.1840 H   0  0  0  0  0  0  0  0  0  0  0  0
    0.6040   -4.6660   -0.4430 H   0  0  0  0  0  0  0  0  0  0  0  0
   -4.2310   -3.4030    0.2710 H   0  0  0  0  0  0  0  0  0  0  0  0
   -3.7450   -1.9360   -0.5880 H   0  0  0  0  0  0  0  0  0  0  0  0
   -3.0290   -3.5120   -1.0210 H   0  0  0  0  0  0  0  0  0  0  0  0
  1  3  2  0  0  0  0
  1  2  1  0  0  0  0
  1  4  1  0  0  0  0
  2  5  2  0  0  0  0
  2  6  1  0  0  0  0
  3  7  1  0  0  0  0
  3 19  1  0  0  0  0
  4  8  2  0  0  0  0
  4 20  1  0  0  0  0
  5 21  1  0  0  0  0
  5  9  1  0  0  0  0
  6 10  2  0  0  0  0
  6 22  1  0  0  0  0
  7 12  1  0  0  0  0
  7 11  2  0  0  0  0
  8 11  1  0  0  0  0
  8 23  1  0  0  0  0
  9 14  1  0  0  0  0
  9 13  2  0  0  0  0
 10 13  1  0  0  0  0
 10 24  1  0  0  0  0
 11 15  1  0  0  0  0
 12 16  1  0  0  0  0
 13 17  1  0  0  0  0
 14 18  1  0  0  0  0
 15 25  1  0  0  0  0
 15 26  1  0  0  0  0
 16 27  1  0  0  0  0
 16 28  1  0  0  0  0
 16 29  1  0  0  0  0
 17 30  1  0  0  0  0
 17 31  1  0  0  0  0
 18 32  1  0  0  0  0
 18 33  1  0  0  0  0
 18 34  1  0  0  0  0
M  END
