decoy-772
 OpenBabel06062114513D

 62 62  0  0  0  0  0  0  0  0999 V2000
   -0.7500    1.1570    0.4290 C   0  0  0  0  0  0  0  0  0  0  0  0
   -1.2700   -0.1170    1.2680 P   0  0  0  0  0  0  0  0  0  0  0  0
   -0.1750    1.0950   -0.8660 C   0  0  0  0  0  0  0  0  0  0  0  0
   -0.8430    2.4230    1.0590 C   0  0  0  0  0  0  0  0  0  0  0  0
   -2.6670   -0.6860    0.5360 C   0  0  0  0  0  0  0  0  0  0  0  0
   -0.1170   -1.3290    1.1670 C   0  0  0  0  0  0  0  0  0  0  0  0
    0.2720    2.2610   -1.5150 C   0  0  0  0  0  0  0  0  0  0  0  0
   -0.3950    3.5880    0.4090 C   0  0  0  0  0  0  0  0  0  0  0  0
   -2.6620   -1.1030   -0.9620 C   0  0  0  0  0  0  0  0  0  0  0  0
    1.2010   -0.9710    1.9070 C   0  0  0  0  0  0  0  0  0  0  0  0
    0.1610    3.5080   -0.8790 C   0  0  0  0  0  0  0  0  0  0  0  0
   -4.0110   -1.7330   -1.4060 C   0  0  0  0  0  0  0  0  0  0  0  0
    2.2390   -2.1230    1.8560 C   0  0  0  0  0  0  0  0  0  0  0  0
   -4.0200   -2.1300   -2.9060 C   0  0  0  0  0  0  0  0  0  0  0  0
    3.5600   -1.7700    2.5910 C   0  0  0  0  0  0  0  0  0  0  0  0
   -5.3670   -2.7610   -3.3480 C   0  0  0  0  0  0  0  0  0  0  0  0
    4.5980   -2.9230    2.5400 C   0  0  0  0  0  0  0  0  0  0  0  0
   -5.3770   -3.1590   -4.8480 C   0  0  0  0  0  0  0  0  0  0  0  0
    5.9180   -2.5690    3.2750 C   0  0  0  0  0  0  0  0  0  0  0  0
   -6.7240   -3.7890   -5.2880 C   0  0  0  0  0  0  0  0  0  0  0  0
    6.9550   -3.7220    3.2230 C   0  0  0  0  0  0  0  0  0  0  0  0
   -6.7360   -4.1860   -6.7810 C   0  0  0  0  0  0  0  0  0  0  0  0
    8.2710   -3.3740    3.9540 C   0  0  0  0  0  0  0  0  0  0  0  0
   -0.0670    0.2050   -1.3560 H   0  0  0  0  0  0  0  0  0  0  0  0
   -1.2400    2.5190    1.9980 H   0  0  0  0  0  0  0  0  0  0  0  0
   -2.9940   -1.5430    1.1280 H   0  0  0  0  0  0  0  0  0  0  0  0
   -3.4240    0.0920    0.6660 H   0  0  0  0  0  0  0  0  0  0  0  0
   -0.5400   -2.2220    1.6340 H   0  0  0  0  0  0  0  0  0  0  0  0
    0.1090   -1.5760    0.1300 H   0  0  0  0  0  0  0  0  0  0  0  0
    0.6820    2.2010   -2.4500 H   0  0  0  0  0  0  0  0  0  0  0  0
   -0.4730    4.4950    0.8750 H   0  0  0  0  0  0  0  0  0  0  0  0
   -2.4820   -0.2220   -1.5820 H   0  0  0  0  0  0  0  0  0  0  0  0
   -1.8670   -1.8280   -1.1450 H   0  0  0  0  0  0  0  0  0  0  0  0
    1.6460   -0.0820    1.4520 H   0  0  0  0  0  0  0  0  0  0  0  0
    0.9790   -0.7440    2.9540 H   0  0  0  0  0  0  0  0  0  0  0  0
    0.4870    4.3550   -1.3500 H   0  0  0  0  0  0  0  0  0  0  0  0
   -4.2040   -2.6240   -0.8010 H   0  0  0  0  0  0  0  0  0  0  0  0
   -4.8160   -1.0160   -1.2230 H   0  0  0  0  0  0  0  0  0  0  0  0
    1.8040   -3.0150    2.3160 H   0  0  0  0  0  0  0  0  0  0  0  0
    2.4650   -2.3530    0.8110 H   0  0  0  0  0  0  0  0  0  0  0  0
   -3.8290   -1.2400   -3.5110 H   0  0  0  0  0  0  0  0  0  0  0  0
   -3.2140   -2.8470   -3.0890 H   0  0  0  0  0  0  0  0  0  0  0  0
    3.9950   -0.8780    2.1320 H   0  0  0  0  0  0  0  0  0  0  0  0
    3.3350   -1.5400    3.6360 H   0  0  0  0  0  0  0  0  0  0  0  0
   -5.5590   -3.6520   -2.7420 H   0  0  0  0  0  0  0  0  0  0  0  0
   -6.1730   -2.0450   -3.1640 H   0  0  0  0  0  0  0  0  0  0  0  0
    4.1620   -3.8140    2.9990 H   0  0  0  0  0  0  0  0  0  0  0  0
    4.8230   -3.1530    1.4950 H   0  0  0  0  0  0  0  0  0  0  0  0
   -5.1860   -2.2680   -5.4530 H   0  0  0  0  0  0  0  0  0  0  0  0
   -4.5710   -3.8760   -5.0310 H   0  0  0  0  0  0  0  0  0  0  0  0
    6.3540   -1.6780    2.8150 H   0  0  0  0  0  0  0  0  0  0  0  0
    5.6930   -2.3400    4.3200 H   0  0  0  0  0  0  0  0  0  0  0  0
   -6.9200   -4.6830   -4.6890 H   0  0  0  0  0  0  0  0  0  0  0  0
   -7.5330   -3.0760   -5.1110 H   0  0  0  0  0  0  0  0  0  0  0  0
    6.5270   -4.6160    3.6840 H   0  0  0  0  0  0  0  0  0  0  0  0
    7.1870   -3.9550    2.1800 H   0  0  0  0  0  0  0  0  0  0  0  0
   -7.7030   -4.6230   -7.0390 H   0  0  0  0  0  0  0  0  0  0  0  0
   -6.5720   -3.3090   -7.4100 H   0  0  0  0  0  0  0  0  0  0  0  0
   -5.9560   -4.9220   -6.9860 H   0  0  0  0  0  0  0  0  0  0  0  0
    8.9630   -4.2150    3.8880 H   0  0  0  0  0  0  0  0  0  0  0  0
    8.7400   -2.5000    3.4970 H   0  0  0  0  0  0  0  0  0  0  0  0
    8.0770   -3.1640    5.0070 H   0  0  0  0  0  0  0  0  0  0  0  0
  1  4  2  0  0  0  0
  1  2  1  0  0  0  0
  1  3  1  0  0  0  0
  2  5  1  0  0  0  0
  2  6  1  0  0  0  0
  3  7  2  0  0  0  0
  3 24  1  0  0  0  0
  4 25  1  0  0  0  0
  4  8  1  0  0  0  0
  5 27  1  0  0  0  0
  5 26  1  0  0  0  0
  5  9  1  0  0  0  0
  6 28  1  0  0  0  0
  6 10  1  0  0  0  0
  6 29  1  0  0  0  0
  7 11  1  0  0  0  0
  7 30  1  0  0  0  0
  8 31  1  0  0  0  0
  8 11  2  0  0  0  0
  9 12  1  0  0  0  0
  9 32  1  0  0  0  0
  9 33  1  0  0  0  0
 10 35  1  0  0  0  0
 10 13  1  0  0  0  0
 10 34  1  0  0  0  0
 11 36  1  0  0  0  0
 12 38  1  0  0  0  0
 12 37  1  0  0  0  0
 12 14  1  0  0  0  0
 13 39  1  0  0  0  0
 13 15  1  0  0  0  0
 13 40  1  0  0  0  0
 14 16  1  0  0  0  0
 14 41  1  0  0  0  0
 14 42  1  0  0  0  0
 15 44  1  0  0  0  0
 15 17  1  0  0  0  0
 15 43  1  0  0  0  0
 16 46  1  0  0  0  0
 16 45  1  0  0  0  0
 16 18  1  0  0  0  0
 17 47  1  0  0  0  0
 17 19  1  0  0  0  0
 17 48  1  0  0  0  0
 18 20  1  0  0  0  0
 18 49  1  0  0  0  0
 18 50  1  0  0  0  0
 19 52  1  0  0  0  0
 19 21  1  0  0  0  0
 19 51  1  0  0  0  0
 20 54  1  0  0  0  0
 20 53  1  0  0  0  0
 20 22  1  0  0  0  0
 21 55  1  0  0  0  0
 21 23  1  0  0  0  0
 21 56  1  0  0  0  0
 22 57  1  0  0  0  0
 22 58  1  0  0  0  0
 22 59  1  0  0  0  0
 23 62  1  0  0  0  0
 23 60  1  0  0  0  0
 23 61  1  0  0  0  0
M  END
