decoy-994
 OpenBabel06062114513D

 40 41  0  0  0  0  0  0  0  0999 V2000
    0.0060    1.5120    0.0140 C   0  0  0  0  0  0  0  0  0  0  0  0
    0.0580    0.0310    0.0240 C   0  0  0  0  0  0  0  0  0  0  0  0
    1.0980    2.3010    0.4430 C   0  0  0  0  0  0  0  0  0  0  0  0
   -1.1180    2.1400   -0.4320 N   0  0  0  0  0  0  0  0  0  0  0  0
    0.0880   -0.5550    1.4560 C   0  0  0  0  0  0  0  0  0  0  0  0
    0.9940    3.7040    0.4070 C   0  0  0  0  0  0  0  0  0  0  0  0
   -1.2500    3.4910   -0.4800 C   0  0  0  0  0  0  0  0  0  0  0  0
    0.1120   -2.3650    1.4030 S   0  0  0  0  0  0  0  0  0  0  0  0
   -0.1880    4.3090   -0.0560 C   0  0  0  0  0  0  0  0  0  0  0  0
    0.1360   -2.6610    3.1890 C   0  0  0  0  0  0  0  0  0  0  0  0
    0.1600   -4.1750    3.4870 C   0  0  0  0  0  0  0  0  0  0  0  0
    0.1840   -4.4710    5.2730 S   0  0  0  0  0  0  0  0  0  0  0  0
    0.2070   -6.2800    5.2200 C   0  0  0  0  0  0  0  0  0  0  0  0
    0.2250   -6.8670    6.6520 C   0  0  0  0  0  0  0  0  0  0  0  0
    0.2120   -8.3490    6.6630 C   0  0  0  0  0  0  0  0  0  0  0  0
    1.3140   -9.1090    6.2080 C   0  0  0  0  0  0  0  0  0  0  0  0
   -0.8840   -9.0060    7.1340 N   0  0  0  0  0  0  0  0  0  0  0  0
    1.2480  -10.5140    6.2460 C   0  0  0  0  0  0  0  0  0  0  0  0
   -0.9790  -10.3600    7.1840 C   0  0  0  0  0  0  0  0  0  0  0  0
    0.0930  -11.1500    6.7360 C   0  0  0  0  0  0  0  0  0  0  0  0
   -0.8180   -0.3680   -0.4960 H   0  0  0  0  0  0  0  0  0  0  0  0
    0.9440   -0.2940   -0.5270 H   0  0  0  0  0  0  0  0  0  0  0  0
    1.9610    1.8650    0.7740 H   0  0  0  0  0  0  0  0  0  0  0  0
    0.9790   -0.2080    1.9830 H   0  0  0  0  0  0  0  0  0  0  0  0
   -0.7990   -0.2270    2.0040 H   0  0  0  0  0  0  0  0  0  0  0  0
    1.7770    4.2830    0.7160 H   0  0  0  0  0  0  0  0  0  0  0  0
   -2.1180    3.9040   -0.8230 H   0  0  0  0  0  0  0  0  0  0  0  0
   -0.2730    5.3270   -0.0870 H   0  0  0  0  0  0  0  0  0  0  0  0
    1.0250   -2.1910    3.6160 H   0  0  0  0  0  0  0  0  0  0  0  0
   -0.7540   -2.2140    3.6370 H   0  0  0  0  0  0  0  0  0  0  0  0
   -0.7290   -4.6450    3.0590 H   0  0  0  0  0  0  0  0  0  0  0  0
    1.0500   -4.6220    3.0390 H   0  0  0  0  0  0  0  0  0  0  0  0
   -0.6830   -6.6320    4.6930 H   0  0  0  0  0  0  0  0  0  0  0  0
    1.0940   -6.6040    4.6720 H   0  0  0  0  0  0  0  0  0  0  0  0
    1.1150   -6.5190    7.1830 H   0  0  0  0  0  0  0  0  0  0  0  0
   -0.6490   -6.4910    7.1930 H   0  0  0  0  0  0  0  0  0  0  0  0
    2.1580   -8.6500    5.8570 H   0  0  0  0  0  0  0  0  0  0  0  0
    2.0390  -11.0720    5.9190 H   0  0  0  0  0  0  0  0  0  0  0  0
   -1.8290  -10.7950    7.5480 H   0  0  0  0  0  0  0  0  0  0  0  0
    0.0360  -12.1700    6.7690 H   0  0  0  0  0  0  0  0  0  0  0  0
  1  2  1  0  0  0  0
  1  3  2  0  0  0  0
  1  4  1  0  0  0  0
  2  5  1  0  0  0  0
  2 21  1  0  0  0  0
  2 22  1  0  0  0  0
  3 23  1  0  0  0  0
  3  6  1  0  0  0  0
  4  7  2  0  0  0  0
  5 24  1  0  0  0  0
  5 25  1  0  0  0  0
  5  8  1  0  0  0  0
  6 26  1  0  0  0  0
  6  9  2  0  0  0  0
  7  9  1  0  0  0  0
  7 27  1  0  0  0  0
  8 10  1  0  0  0  0
  9 28  1  0  0  0  0
 10 11  1  0  0  0  0
 10 29  1  0  0  0  0
 10 30  1  0  0  0  0
 11 12  1  0  0  0  0
 11 31  1  0  0  0  0
 11 32  1  0  0  0  0
 12 13  1  0  0  0  0
 13 14  1  0  0  0  0
 13 33  1  0  0  0  0
 13 34  1  0  0  0  0
 14 15  1  0  0  0  0
 14 35  1  0  0  0  0
 14 36  1  0  0  0  0
 15 17  2  0  0  0  0
 15 16  1  0  0  0  0
 16 18  2  0  0  0  0
 16 37  1  0  0  0  0
 17 19  1  0  0  0  0
 18 20  1  0  0  0  0
 18 38  1  0  0  0  0
 19 39  1  0  0  0  0
 19 20  2  0  0  0  0
 20 40  1  0  0  0  0
M  END
