decoy-476
 OpenBabel06062114513D

 64 66  0  0  0  0  0  0  0  0999 V2000
   -0.6980   -0.6460    1.0510 N   0  0  0  0  0  0  0  0  0  0  0  0
    0.2040   -1.4710    1.7880 C   0  0  0  0  0  0  0  0  0  0  0  0
   -1.3500    0.4380    1.4970 C   0  0  0  0  0  0  0  0  0  0  0  0
   -0.0450   -0.7660   -0.0840 C   0  0  0  0  0  0  0  0  0  0  0  0
    0.9920   -1.6050    0.4480 C   0  0  0  0  0  0  0  0  0  0  0  0
    0.9740   -0.6520    3.2200 S   0  0  0  0  0  0  0  0  0  0  0  0
   -0.7590    1.2810    2.3820 C   0  0  0  0  0  0  0  0  0  0  0  0
   -2.6610    0.5480    1.0910 C   0  0  0  0  0  0  0  0  0  0  0  0
    0.0250    0.0330   -1.0090 O   0  0  0  0  0  0  0  0  0  0  0  0
    2.3000   -1.0310    0.3820 N   0  0  0  0  0  0  0  0  0  0  0  0
    0.6550    1.0610    2.7180 C   0  0  0  0  0  0  0  0  0  0  0  0
   -1.4730    2.4210    2.9690 C   0  0  0  0  0  0  0  0  0  0  0  0
   -3.6470    0.1390    1.9320 O   0  0  0  0  0  0  0  0  0  0  0  0
   -2.9300    1.0250   -0.1470 O   0  0  0  0  0  0  0  0  0  0  0  0
    3.3990   -1.5900    0.8650 C   0  0  0  0  0  0  0  0  0  0  0  0
   -1.8480    3.3370    1.9220 O   0  0  0  0  0  0  0  0  0  0  0  0
   -5.0610    0.1820    1.7060 C   0  0  0  0  0  0  0  0  0  0  0  0
    4.5800   -0.9400    0.7400 C   0  0  0  0  0  0  0  0  0  0  0  0
    3.3830   -2.6770    1.4280 O   0  0  0  0  0  0  0  0  0  0  0  0
   -2.6110    4.4730    2.3620 C   0  0  0  0  0  0  0  0  0  0  0  0
   -5.6720   -0.5480    2.7780 O   0  0  0  0  0  0  0  0  0  0  0  0
   -5.6000    1.6290    1.7270 C   0  0  0  0  0  0  0  0  0  0  0  0
    5.5460   -1.4020   -0.1480 C   0  0  0  0  0  0  0  0  0  0  0  0
    4.8280    0.1200    1.4280 N   0  0  0  0  0  0  0  0  0  0  0  0
   -6.4350   -1.6690    2.7030 C   0  0  0  0  0  0  0  0  0  0  0  0
    5.2640   -2.1740   -1.2110 N   0  0  0  0  0  0  0  0  0  0  0  0
    6.9170   -1.1520   -0.0690 C   0  0  0  0  0  0  0  0  0  0  0  0
    4.0590    0.6740    2.2890 O   0  0  0  0  0  0  0  0  0  0  0  0
   -6.7230   -2.2500    1.5080 O   0  0  0  0  0  0  0  0  0  0  0  0
   -6.9120   -2.1770    3.8620 O   0  0  0  0  0  0  0  0  0  0  0  0
    6.3510   -2.5070   -1.9220 C   0  0  0  0  0  0  0  0  0  0  0  0
    7.8520   -1.8790   -1.3310 S   0  0  0  0  0  0  0  0  0  0  0  0
    4.6620    1.8710    2.7940 C   0  0  0  0  0  0  0  0  0  0  0  0
   -7.4940   -3.4350    1.2580 C   0  0  0  0  0  0  0  0  0  0  0  0
    6.2790   -3.2750   -3.0190 N   0  0  0  0  0  0  0  0  0  0  0  0
   -7.7870   -3.4990   -0.2590 C   0  0  0  0  0  0  0  0  0  0  0  0
   -6.7510   -4.7040    1.7470 C   0  0  0  0  0  0  0  0  0  0  0  0
   -0.2630   -2.4160    2.0840 H   0  0  0  0  0  0  0  0  0  0  0  0
    0.9390   -2.6070    0.0120 H   0  0  0  0  0  0  0  0  0  0  0  0
    2.3910   -0.1720   -0.0620 H   0  0  0  0  0  0  0  0  0  0  0  0
    1.0030    1.7020    3.5300 H   0  0  0  0  0  0  0  0  0  0  0  0
    1.2660    1.2890    1.8430 H   0  0  0  0  0  0  0  0  0  0  0  0
   -2.3570    2.0500    3.4960 H   0  0  0  0  0  0  0  0  0  0  0  0
   -0.8590    2.9530    3.7000 H   0  0  0  0  0  0  0  0  0  0  0  0
   -5.2860   -0.2750    0.7370 H   0  0  0  0  0  0  0  0  0  0  0  0
   -3.5490    4.1610    2.8240 H   0  0  0  0  0  0  0  0  0  0  0  0
   -2.8440    5.0860    1.4910 H   0  0  0  0  0  0  0  0  0  0  0  0
   -2.0390    5.0790    3.0680 H   0  0  0  0  0  0  0  0  0  0  0  0
   -5.3600    2.1050    2.6800 H   0  0  0  0  0  0  0  0  0  0  0  0
   -6.6840    1.6230    1.5990 H   0  0  0  0  0  0  0  0  0  0  0  0
   -5.1580    2.2140    0.9200 H   0  0  0  0  0  0  0  0  0  0  0  0
    7.3540   -0.6100    0.6790 H   0  0  0  0  0  0  0  0  0  0  0  0
    5.6090    1.6550    3.2960 H   0  0  0  0  0  0  0  0  0  0  0  0
    3.9820    2.3130    3.5220 H   0  0  0  0  0  0  0  0  0  0  0  0
    4.8280    2.5980    1.9950 H   0  0  0  0  0  0  0  0  0  0  0  0
   -8.4510   -3.3560    1.7840 H   0  0  0  0  0  0  0  0  0  0  0  0
    7.0860   -3.4970   -3.5100 H   0  0  0  0  0  0  0  0  0  0  0  0
    5.4210   -3.6100   -3.3220 H   0  0  0  0  0  0  0  0  0  0  0  0
   -8.3220   -2.6010   -0.5730 H   0  0  0  0  0  0  0  0  0  0  0  0
   -8.4060   -4.3680   -0.4920 H   0  0  0  0  0  0  0  0  0  0  0  0
   -6.8560   -3.5660   -0.8260 H   0  0  0  0  0  0  0  0  0  0  0  0
   -5.7780   -4.7860    1.2590 H   0  0  0  0  0  0  0  0  0  0  0  0
   -7.3360   -5.5980    1.5200 H   0  0  0  0  0  0  0  0  0  0  0  0
   -6.5980   -4.6620    2.8260 H   0  0  0  0  0  0  0  0  0  0  0  0
  1  3  1  0  0  0  0
  1  2  1  0  0  0  0
  1  4  1  0  0  0  0
  2  5  1  0  0  0  0
  2 38  1  0  0  0  0
  2  6  1  0  0  0  0
  3  7  2  0  0  0  0
  3  8  1  0  0  0  0
  4  5  1  0  0  0  0
  4  9  2  0  0  0  0
  5 39  1  0  0  0  0
  5 10  1  0  0  0  0
  6 11  1  0  0  0  0
  7 11  1  0  0  0  0
  7 12  1  0  0  0  0
  8 13  1  0  0  0  0
  8 14  2  0  0  0  0
 10 15  1  0  0  0  0
 10 40  1  0  0  0  0
 11 41  1  0  0  0  0
 11 42  1  0  0  0  0
 12 43  1  0  0  0  0
 12 44  1  0  0  0  0
 12 16  1  0  0  0  0
 13 17  1  0  0  0  0
 15 19  2  0  0  0  0
 15 18  1  0  0  0  0
 16 20  1  0  0  0  0
 17 45  1  0  0  0  0
 17 22  1  0  0  0  0
 17 21  1  0  0  0  0
 18 24  2  0  0  0  0
 18 23  1  0  0  0  0
 20 46  1  0  0  0  0
 20 48  1  0  0  0  0
 20 47  1  0  0  0  0
 21 25  1  0  0  0  0
 22 49  1  0  0  0  0
 22 50  1  0  0  0  0
 22 51  1  0  0  0  0
 23 27  2  0  0  0  0
 23 26  1  0  0  0  0
 24 28  1  0  0  0  0
 25 30  2  0  0  0  0
 25 29  1  0  0  0  0
 26 31  2  0  0  0  0
 27 52  1  0  0  0  0
 27 32  1  0  0  0  0
 28 33  1  0  0  0  0
 29 34  1  0  0  0  0
 31 32  1  0  0  0  0
 31 35  1  0  0  0  0
 33 53  1  0  0  0  0
 33 54  1  0  0  0  0
 33 55  1  0  0  0  0
 34 37  1  0  0  0  0
 34 56  1  0  0  0  0
 34 36  1  0  0  0  0
 35 57  1  0  0  0  0
 35 58  1  0  0  0  0
 36 59  1  0  0  0  0
 36 60  1  0  0  0  0
 36 61  1  0  0  0  0
 37 64  1  0  0  0  0
 37 62  1  0  0  0  0
 37 63  1  0  0  0  0
M  END
