decoy-873
 OpenBabel06062114513D

 41 43  0  0  0  0  0  0  0  0999 V2000
   -0.0690    1.4310    0.0150 C   0  0  0  0  0  0  0  0  0  0  0  0
   -0.0470    0.0230    0.1300 C   0  0  0  0  0  0  0  0  0  0  0  0
    1.1140    2.1390   -0.0150 O   0  0  0  0  0  0  0  0  0  0  0  0
   -1.3650    2.0990    0.0080 C   0  0  0  0  0  0  0  0  0  0  0  0
   -1.2650   -0.6870    0.0130 C   0  0  0  0  0  0  0  0  0  0  0  0
    1.0920   -0.6230    0.0140 C   0  0  0  0  0  0  0  0  0  0  0  0
    0.9500    3.5710    0.0030 C   0  0  0  0  0  0  0  0  0  0  0  0
   -2.5480    1.4340    0.0230 C   0  0  0  0  0  0  0  0  0  0  0  0
   -1.2610   -2.0660   -0.0110 O   0  0  0  0  0  0  0  0  0  0  0  0
   -2.5060    0.0780   -0.0010 C   0  0  0  0  0  0  0  0  0  0  0  0
    2.0990   -1.1890   -0.0910 N   0  0  0  0  0  0  0  0  0  0  0  0
    2.1600    4.3200   -0.0280 C   0  0  0  0  0  0  0  0  0  0  0  0
   -2.5710   -2.6650    0.0140 C   0  0  0  0  0  0  0  0  0  0  0  0
    2.3650    5.2500   -1.0680 C   0  0  0  0  0  0  0  0  0  0  0  0
    3.0480    4.2040    1.0560 C   0  0  0  0  0  0  0  0  0  0  0  0
   -2.5870   -4.0880    0.0350 C   0  0  0  0  0  0  0  0  0  0  0  0
    3.5100    6.0300   -1.0670 C   0  0  0  0  0  0  0  0  0  0  0  0
    4.1980    4.9850    1.0630 C   0  0  0  0  0  0  0  0  0  0  0  0
   -3.2570   -4.7550    1.0800 C   0  0  0  0  0  0  0  0  0  0  0  0
   -2.0510   -4.7770   -1.0680 C   0  0  0  0  0  0  0  0  0  0  0  0
    4.4490    5.8990   -0.0030 C   0  0  0  0  0  0  0  0  0  0  0  0
   -3.3340   -6.1380    1.0660 C   0  0  0  0  0  0  0  0  0  0  0  0
   -2.1260   -6.1650   -1.0890 C   0  0  0  0  0  0  0  0  0  0  0  0
   -2.7580   -6.8630   -0.0170 C   0  0  0  0  0  0  0  0  0  0  0  0
   -1.4730    3.0930    0.0190 H   0  0  0  0  0  0  0  0  0  0  0  0
    0.3500    3.8500   -0.8690 H   0  0  0  0  0  0  0  0  0  0  0  0
    0.4370    3.8980    0.9160 H   0  0  0  0  0  0  0  0  0  0  0  0
   -3.4470    1.9420    0.0320 H   0  0  0  0  0  0  0  0  0  0  0  0
   -3.4130   -0.3440    0.0070 H   0  0  0  0  0  0  0  0  0  0  0  0
   -3.0970   -2.3000    0.9040 H   0  0  0  0  0  0  0  0  0  0  0  0
   -3.1400   -2.3900   -0.8810 H   0  0  0  0  0  0  0  0  0  0  0  0
    1.6910    5.3670   -1.8290 H   0  0  0  0  0  0  0  0  0  0  0  0
    2.8570    3.5610    1.8310 H   0  0  0  0  0  0  0  0  0  0  0  0
    3.6720    6.6790   -1.8290 H   0  0  0  0  0  0  0  0  0  0  0  0
    4.8640    4.8950    1.8240 H   0  0  0  0  0  0  0  0  0  0  0  0
   -3.6910   -4.2460    1.8550 H   0  0  0  0  0  0  0  0  0  0  0  0
   -1.6140   -4.2720   -1.8460 H   0  0  0  0  0  0  0  0  0  0  0  0
    5.2750    6.4470   -0.0100 H   0  0  0  0  0  0  0  0  0  0  0  0
   -3.7920   -6.6200    1.8320 H   0  0  0  0  0  0  0  0  0  0  0  0
   -1.7200   -6.6800   -1.8630 H   0  0  0  0  0  0  0  0  0  0  0  0
   -2.8000   -7.8540   -0.0210 H   0  0  0  0  0  0  0  0  0  0  0  0
  1  2  2  0  0  0  0
  1  3  1  0  0  0  0
  1  4  1  0  0  0  0
  2  5  1  0  0  0  0
  2  6  1  0  0  0  0
  3  7  1  0  0  0  0
  4 25  1  0  0  0  0
  4  8  2  0  0  0  0
  5  9  1  0  0  0  0
  5 10  2  0  0  0  0
  6 11  3  0  0  0  0
  7 27  1  0  0  0  0
  7 12  1  0  0  0  0
  7 26  1  0  0  0  0
  8 28  1  0  0  0  0
  8 10  1  0  0  0  0
  9 13  1  0  0  0  0
 10 29  1  0  0  0  0
 12 15  2  0  0  0  0
 12 14  1  0  0  0  0
 13 16  1  0  0  0  0
 13 30  1  0  0  0  0
 13 31  1  0  0  0  0
 14 17  2  0  0  0  0
 14 32  1  0  0  0  0
 15 18  1  0  0  0  0
 15 33  1  0  0  0  0
 16 19  2  0  0  0  0
 16 20  1  0  0  0  0
 17 21  1  0  0  0  0
 17 34  1  0  0  0  0
 18 35  1  0  0  0  0
 18 21  2  0  0  0  0
 19 36  1  0  0  0  0
 19 22  1  0  0  0  0
 20 23  2  0  0  0  0
 20 37  1  0  0  0  0
 21 38  1  0  0  0  0
 22 39  1  0  0  0  0
 22 24  2  0  0  0  0
 23 24  1  0  0  0  0
 23 40  1  0  0  0  0
 24 41  1  0  0  0  0
M  END
