decoy-784
 OpenBabel06062114513D

 21 21  0  0  0  0  0  0  0  0999 V2000
   -0.0700    1.4290    0.0350 C   0  0  0  0  0  0  0  0  0  0  0  0
   -0.0780    0.0000   -0.0440 C   0  0  0  0  0  0  0  0  0  0  0  0
    1.1870    2.0910    0.0560 C   0  0  0  0  0  0  0  0  0  0  0  0
   -1.3290    2.2420    0.0860 C   0  0  0  0  0  0  0  0  0  0  0  0
    1.1550   -0.6920   -0.1050 C   0  0  0  0  0  0  0  0  0  0  0  0
   -1.3050   -0.8480   -0.0770 C   0  0  0  0  0  0  0  0  0  0  0  0
    2.4180    1.3980   -0.0020 C   0  0  0  0  0  0  0  0  0  0  0  0
   -1.1560    3.6070    0.0970 F   0  0  0  0  0  0  0  0  0  0  0  0
   -2.1110    1.9850   -1.0140 F   0  0  0  0  0  0  0  0  0  0  0  0
   -2.0330    1.9540    1.2310 F   0  0  0  0  0  0  0  0  0  0  0  0
    2.3790   -0.0090   -0.0840 C   0  0  0  0  0  0  0  0  0  0  0  0
   -1.5170   -1.6470   -1.8210 Br  0  0  0  0  0  0  0  0  0  0  0  0
    3.6990    2.1610    0.0250 C   0  0  0  0  0  0  0  0  0  0  0  0
    4.8320    1.3830   -0.0370 F   0  0  0  0  0  0  0  0  0  0  0  0
    3.7530    3.0250   -1.0430 F   0  0  0  0  0  0  0  0  0  0  0  0
    3.7850    2.8950    1.1830 F   0  0  0  0  0  0  0  0  0  0  0  0
    1.2210    3.1110    0.1160 H   0  0  0  0  0  0  0  0  0  0  0  0
    1.1730   -1.7140   -0.1640 H   0  0  0  0  0  0  0  0  0  0  0  0
   -1.2280   -1.6430    0.6680 H   0  0  0  0  0  0  0  0  0  0  0  0
   -2.2190   -0.3020    0.1400 H   0  0  0  0  0  0  0  0  0  0  0  0
    3.2420   -0.5550   -0.1290 H   0  0  0  0  0  0  0  0  0  0  0  0
  1  3  2  0  0  0  0
  1  4  1  0  0  0  0
  1  2  1  0  0  0  0
  2  5  2  0  0  0  0
  2  6  1  0  0  0  0
  3 17  1  0  0  0  0
  3  7  1  0  0  0  0
  4  8  1  0  0  0  0
  4 10  1  0  0  0  0
  4  9  1  0  0  0  0
  5 11  1  0  0  0  0
  5 18  1  0  0  0  0
  6 20  1  0  0  0  0
  6 19  1  0  0  0  0
  6 12  1  0  0  0  0
  7 13  1  0  0  0  0
  7 11  2  0  0  0  0
 11 21  1  0  0  0  0
 13 16  1  0  0  0  0
 13 14  1  0  0  0  0
 13 15  1  0  0  0  0
M  END
