decoy-523
 OpenBabel06062114513D

 63 67  0  0  0  0  0  0  0  0999 V2000
   -3.2570    0.3760   -0.0810 C   0  0  0  0  0  0  0  0  0  0  0  0
   -1.9080    0.9980   -0.6270 C   0  0  0  0  0  0  0  0  0  0  0  0
   -3.9190   -0.2260   -1.3600 C   0  0  0  0  0  0  0  0  0  0  0  0
   -3.0240   -0.8040    0.7070 O   0  0  0  0  0  0  0  0  0  0  0  0
   -4.0850    1.2830    0.7370 C   0  0  0  0  0  0  0  0  0  0  0  0
   -1.5080   -0.0780   -1.6890 C   0  0  0  0  0  0  0  0  0  0  0  0
   -0.7150    1.0940    0.3880 C   0  0  0  0  0  0  0  0  0  0  0  0
   -2.2100    2.4280   -1.2310 C   0  0  0  0  0  0  0  0  0  0  0  0
   -2.8200   -0.3390   -2.4530 C   0  0  0  0  0  0  0  0  0  0  0  0
   -4.4380   -1.5100   -1.0100 O   0  0  0  0  0  0  0  0  0  0  0  0
   -3.9470   -1.8260    0.2970 C   0  0  0  0  0  0  0  0  0  0  0  0
   -3.7220    1.6870    2.0850 C   0  0  0  0  0  0  0  0  0  0  0  0
   -5.0910    1.7960    0.2620 O   0  0  0  0  0  0  0  0  0  0  0  0
   -0.1830    0.2400   -2.4600 C   0  0  0  0  0  0  0  0  0  0  0  0
    0.6940    1.3260   -0.2570 C   0  0  0  0  0  0  0  0  0  0  0  0
   -5.1430   -1.9130    1.2810 C   0  0  0  0  0  0  0  0  0  0  0  0
   -3.1890   -3.1760    0.2380 C   0  0  0  0  0  0  0  0  0  0  0  0
   -4.9910    1.2910    3.2390 Cl  0  0  0  0  0  0  0  0  0  0  0  0
    1.0420    0.3530   -1.4540 C   0  0  0  0  0  0  0  0  0  0  0  0
    0.1040   -0.8100   -3.5780 C   0  0  0  0  0  0  0  0  0  0  0  0
    0.8490    2.7030   -0.5870 O   0  0  0  0  0  0  0  0  0  0  0  0
    2.4290    0.5950   -2.2250 C   0  0  0  0  0  0  0  0  0  0  0  0
    1.1550   -0.8860   -0.8410 F   0  0  0  0  0  0  0  0  0  0  0  0
    1.4700   -0.5800   -4.2710 C   0  0  0  0  0  0  0  0  0  0  0  0
    2.5420   -0.4790   -3.2670 C   0  0  0  0  0  0  0  0  0  0  0  0
    3.6940    0.5680   -1.2640 C   0  0  0  0  0  0  0  0  0  0  0  0
    2.5030    1.9950   -2.9470 C   0  0  0  0  0  0  0  0  0  0  0  0
    3.4840   -1.4520   -3.2200 C   0  0  0  0  0  0  0  0  0  0  0  0
    4.2420   -0.8500   -0.9700 C   0  0  0  0  0  0  0  0  0  0  0  0
    4.3830   -1.5880   -2.2100 C   0  0  0  0  0  0  0  0  0  0  0  0
    5.1730   -2.5240   -2.2370 O   0  0  0  0  0  0  0  0  0  0  0  0
   -1.3030   -1.0200   -1.1670 H   0  0  0  0  0  0  0  0  0  0  0  0
   -0.3220    1.1910   -2.9720 H   0  0  0  0  0  0  0  0  0  0  0  0
   -4.7420    0.3800   -1.7490 H   0  0  0  0  0  0  0  0  0  0  0  0
   -0.9020    1.8940    1.1080 H   0  0  0  0  0  0  0  0  0  0  0  0
   -0.6630    0.1660    0.9650 H   0  0  0  0  0  0  0  0  0  0  0  0
   -3.1190    2.4300   -1.8340 H   0  0  0  0  0  0  0  0  0  0  0  0
   -1.4180    2.8020   -1.8680 H   0  0  0  0  0  0  0  0  0  0  0  0
   -2.3530    3.1560   -0.4290 H   0  0  0  0  0  0  0  0  0  0  0  0
   -2.8210   -1.3250   -2.9260 H   0  0  0  0  0  0  0  0  0  0  0  0
   -2.9640    0.4170   -3.2310 H   0  0  0  0  0  0  0  0  0  0  0  0
   -2.8130    1.1900    2.4260 H   0  0  0  0  0  0  0  0  0  0  0  0
   -3.5510    2.7650    2.1110 H   0  0  0  0  0  0  0  0  0  0  0  0
    1.4100    1.1600    0.5510 H   0  0  0  0  0  0  0  0  0  0  0  0
   -4.7860   -2.0710    2.3000 H   0  0  0  0  0  0  0  0  0  0  0  0
   -5.8040   -2.7380    1.0080 H   0  0  0  0  0  0  0  0  0  0  0  0
   -5.7270   -0.9930    1.2550 H   0  0  0  0  0  0  0  0  0  0  0  0
   -2.3700   -3.1210   -0.4800 H   0  0  0  0  0  0  0  0  0  0  0  0
   -3.8610   -3.9790   -0.0740 H   0  0  0  0  0  0  0  0  0  0  0  0
   -2.7750   -3.4230    1.2170 H   0  0  0  0  0  0  0  0  0  0  0  0
    0.0890   -1.8180   -3.1520 H   0  0  0  0  0  0  0  0  0  0  0  0
   -0.6790   -0.7620   -4.3390 H   0  0  0  0  0  0  0  0  0  0  0  0
    0.4260    2.8140   -1.4600 H   0  0  0  0  0  0  0  0  0  0  0  0
    1.6260   -1.3990   -4.9810 H   0  0  0  0  0  0  0  0  0  0  0  0
    1.4310    0.3320   -4.8690 H   0  0  0  0  0  0  0  0  0  0  0  0
    4.5280    1.1100   -1.7250 H   0  0  0  0  0  0  0  0  0  0  0  0
    3.4940    1.0760   -0.3220 H   0  0  0  0  0  0  0  0  0  0  0  0
    1.5940    2.2450   -3.4890 H   0  0  0  0  0  0  0  0  0  0  0  0
    3.3250    2.0130   -3.6670 H   0  0  0  0  0  0  0  0  0  0  0  0
    2.6900    2.8030   -2.2370 H   0  0  0  0  0  0  0  0  0  0  0  0
    3.5050   -2.1400   -3.9410 H   0  0  0  0  0  0  0  0  0  0  0  0
    5.2120   -0.7590   -0.4710 H   0  0  0  0  0  0  0  0  0  0  0  0
    3.5740   -1.3910   -0.2980 H   0  0  0  0  0  0  0  0  0  0  0  0
  1  3  1  0  0  0  0
  1  4  1  0  0  0  0
  1  5  1  0  0  0  0
  1  2  1  0  0  0  0
  2  6  1  0  0  0  0
  2  7  1  0  0  0  0
  2  8  1  0  0  0  0
  3 34  1  0  0  0  0
  3 10  1  0  0  0  0
  3  9  1  0  0  0  0
  4 11  1  0  0  0  0
  5 12  1  0  0  0  0
  5 13  2  0  0  0  0
  6 14  1  0  0  0  0
  6 32  1  0  0  0  0
  6  9  1  0  0  0  0
  7 36  1  0  0  0  0
  7 35  1  0  0  0  0
  7 15  1  0  0  0  0
  8 39  1  0  0  0  0
  8 37  1  0  0  0  0
  8 38  1  0  0  0  0
  9 40  1  0  0  0  0
  9 41  1  0  0  0  0
 10 11  1  0  0  0  0
 11 16  1  0  0  0  0
 11 17  1  0  0  0  0
 12 43  1  0  0  0  0
 12 42  1  0  0  0  0
 12 18  1  0  0  0  0
 14 19  1  0  0  0  0
 14 20  1  0  0  0  0
 14 33  1  0  0  0  0
 15 19  1  0  0  0  0
 15 44  1  0  0  0  0
 15 21  1  0  0  0  0
 16 45  1  0  0  0  0
 16 46  1  0  0  0  0
 16 47  1  0  0  0  0
 17 50  1  0  0  0  0
 17 48  1  0  0  0  0
 17 49  1  0  0  0  0
 19 22  1  0  0  0  0
 19 23  1  0  0  0  0
 20 51  1  0  0  0  0
 20 24  1  0  0  0  0
 20 52  1  0  0  0  0
 21 53  1  0  0  0  0
 22 27  1  0  0  0  0
 22 26  1  0  0  0  0
 22 25  1  0  0  0  0
 24 25  1  0  0  0  0
 24 54  1  0  0  0  0
 24 55  1  0  0  0  0
 25 28  2  0  0  0  0
 26 29  1  0  0  0  0
 26 57  1  0  0  0  0
 26 56  1  0  0  0  0
 27 60  1  0  0  0  0
 27 58  1  0  0  0  0
 27 59  1  0  0  0  0
 28 30  1  0  0  0  0
 28 61  1  0  0  0  0
 29 62  1  0  0  0  0
 29 63  1  0  0  0  0
 29 30  1  0  0  0  0
 30 31  2  0  0  0  0
M  END
