decoy-876
 OpenBabel06062114513D

 65 69  0  0  0  0  0  0  0  0999 V2000
   -2.4990    1.0500   -1.7730 C   0  0  0  0  0  0  0  0  0  0  0  0
   -1.1750    1.9160   -1.8060 C   0  0  0  0  0  0  0  0  0  0  0  0
   -2.1970   -0.1390   -2.7420 C   0  0  0  0  0  0  0  0  0  0  0  0
   -2.6270    0.3520   -0.5230 O   0  0  0  0  0  0  0  0  0  0  0  0
   -3.7580    1.7870   -2.0220 C   0  0  0  0  0  0  0  0  0  0  0  0
   -0.0990    0.7880   -1.9330 C   0  0  0  0  0  0  0  0  0  0  0  0
   -0.8360    2.7130   -0.4970 C   0  0  0  0  0  0  0  0  0  0  0  0
   -1.2230    2.9040   -3.0370 C   0  0  0  0  0  0  0  0  0  0  0  0
   -0.6710   -0.1320   -3.0300 C   0  0  0  0  0  0  0  0  0  0  0  0
   -2.5590   -1.3470   -2.0670 O   0  0  0  0  0  0  0  0  0  0  0  0
   -3.1420   -0.9480   -0.8290 C   0  0  0  0  0  0  0  0  0  0  0  0
   -4.5080    2.4340   -0.9560 C   0  0  0  0  0  0  0  0  0  0  0  0
   -4.1680    1.9060   -3.1700 O   0  0  0  0  0  0  0  0  0  0  0  0
    1.3750    1.3060   -2.0190 C   0  0  0  0  0  0  0  0  0  0  0  0
    0.6390    3.2240   -0.3990 C   0  0  0  0  0  0  0  0  0  0  0  0
   -2.7820   -1.9610    0.2820 C   0  0  0  0  0  0  0  0  0  0  0  0
   -5.6440    3.1650   -1.4150 O   0  0  0  0  0  0  0  0  0  0  0  0
    1.7260    2.1230   -0.7110 C   0  0  0  0  0  0  0  0  0  0  0  0
    2.3760    0.1250   -2.2090 C   0  0  0  0  0  0  0  0  0  0  0  0
    0.8010    4.4090   -1.1720 O   0  0  0  0  0  0  0  0  0  0  0  0
   -3.4130   -1.6050    1.6540 C   0  0  0  0  0  0  0  0  0  0  0  0
    3.2550    2.5690   -0.6490 C   0  0  0  0  0  0  0  0  0  0  0  0
    3.8510    0.5860   -2.1440 C   0  0  0  0  0  0  0  0  0  0  0  0
   -3.0630   -2.6310    2.7540 C   0  0  0  0  0  0  0  0  0  0  0  0
    4.0910    1.3510   -0.9160 C   0  0  0  0  0  0  0  0  0  0  0  0
    3.5460    3.1500    0.6850 C   0  0  0  0  0  0  0  0  0  0  0  0
    3.6600    3.6730   -1.6900 C   0  0  0  0  0  0  0  0  0  0  0  0
    5.0000    0.9140   -0.0140 C   0  0  0  0  0  0  0  0  0  0  0  0
    4.4680    2.6430    1.5200 C   0  0  0  0  0  0  0  0  0  0  0  0
    5.1950    1.5490    1.1750 C   0  0  0  0  0  0  0  0  0  0  0  0
    6.0350    1.1210    1.9560 O   0  0  0  0  0  0  0  0  0  0  0  0
   -0.1230    0.1790   -1.0180 H   0  0  0  0  0  0  0  0  0  0  0  0
    1.4770    1.9500   -2.8920 H   0  0  0  0  0  0  0  0  0  0  0  0
    1.6120    1.4050    0.1130 H   0  0  0  0  0  0  0  0  0  0  0  0
   -2.7470   -0.0870   -3.6850 H   0  0  0  0  0  0  0  0  0  0  0  0
   -1.5100    3.5670   -0.3940 H   0  0  0  0  0  0  0  0  0  0  0  0
   -1.0140    2.0730    0.3720 H   0  0  0  0  0  0  0  0  0  0  0  0
   -1.5830    2.4080   -3.9390 H   0  0  0  0  0  0  0  0  0  0  0  0
   -0.2570    3.3290   -3.2840 H   0  0  0  0  0  0  0  0  0  0  0  0
   -1.9000    3.7350   -2.8290 H   0  0  0  0  0  0  0  0  0  0  0  0
   -0.2440   -1.1380   -2.9750 H   0  0  0  0  0  0  0  0  0  0  0  0
   -0.4610    0.2760   -4.0220 H   0  0  0  0  0  0  0  0  0  0  0  0
   -4.2300   -0.9030   -0.9470 H   0  0  0  0  0  0  0  0  0  0  0  0
   -4.8680    1.6810   -0.2540 H   0  0  0  0  0  0  0  0  0  0  0  0
   -3.8650    3.1280   -0.4170 H   0  0  0  0  0  0  0  0  0  0  0  0
    0.7690    3.5480    0.6370 H   0  0  0  0  0  0  0  0  0  0  0  0
   -3.1300   -2.9510   -0.0250 H   0  0  0  0  0  0  0  0  0  0  0  0
   -1.6940   -2.0010    0.3830 H   0  0  0  0  0  0  0  0  0  0  0  0
   -5.2780    3.8640   -1.9970 H   0  0  0  0  0  0  0  0  0  0  0  0
    2.2100   -0.6310   -1.4360 H   0  0  0  0  0  0  0  0  0  0  0  0
    2.2060   -0.3490   -3.1800 H   0  0  0  0  0  0  0  0  0  0  0  0
    0.9810    4.1070   -2.0840 H   0  0  0  0  0  0  0  0  0  0  0  0
   -3.0600   -0.6210    1.9730 H   0  0  0  0  0  0  0  0  0  0  0  0
   -4.5010   -1.5600    1.5530 H   0  0  0  0  0  0  0  0  0  0  0  0
    4.4860   -0.3020   -2.2190 H   0  0  0  0  0  0  0  0  0  0  0  0
    4.0800    1.2050   -3.0140 H   0  0  0  0  0  0  0  0  0  0  0  0
   -3.4290   -3.6230    2.4800 H   0  0  0  0  0  0  0  0  0  0  0  0
   -3.5280   -2.3360    3.6960 H   0  0  0  0  0  0  0  0  0  0  0  0
   -1.9820   -2.6790    2.8990 H   0  0  0  0  0  0  0  0  0  0  0  0
    3.0670    3.9740    0.9710 H   0  0  0  0  0  0  0  0  0  0  0  0
    3.3080    3.4330   -2.6930 H   0  0  0  0  0  0  0  0  0  0  0  0
    4.7480    3.7780   -1.7350 H   0  0  0  0  0  0  0  0  0  0  0  0
    3.2580    4.6530   -1.4310 H   0  0  0  0  0  0  0  0  0  0  0  0
    5.5360    0.0960   -0.2050 H   0  0  0  0  0  0  0  0  0  0  0  0
    4.6260    3.0890    2.3960 H   0  0  0  0  0  0  0  0  0  0  0  0
  1  3  1  0  0  0  0
  1  4  1  0  0  0  0
  1  2  1  0  0  0  0
  1  5  1  0  0  0  0
  2  6  1  0  0  0  0
  2  7  1  0  0  0  0
  2  8  1  0  0  0  0
  3 35  1  0  0  0  0
  3 10  1  0  0  0  0
  3  9  1  0  0  0  0
  4 11  1  0  0  0  0
  5 12  1  0  0  0  0
  5 13  2  0  0  0  0
  6 14  1  0  0  0  0
  6 32  1  0  0  0  0
  6  9  1  0  0  0  0
  7 15  1  0  0  0  0
  7 36  1  0  0  0  0
  7 37  1  0  0  0  0
  8 40  1  0  0  0  0
  8 38  1  0  0  0  0
  8 39  1  0  0  0  0
  9 41  1  0  0  0  0
  9 42  1  0  0  0  0
 10 11  1  0  0  0  0
 11 43  1  0  0  0  0
 11 16  1  0  0  0  0
 12 45  1  0  0  0  0
 12 44  1  0  0  0  0
 12 17  1  0  0  0  0
 14 18  1  0  0  0  0
 14 19  1  0  0  0  0
 14 33  1  0  0  0  0
 15 18  1  0  0  0  0
 15 46  1  0  0  0  0
 15 20  1  0  0  0  0
 16 48  1  0  0  0  0
 16 21  1  0  0  0  0
 16 47  1  0  0  0  0
 17 49  1  0  0  0  0
 18 22  1  0  0  0  0
 18 34  1  0  0  0  0
 19 23  1  0  0  0  0
 19 50  1  0  0  0  0
 19 51  1  0  0  0  0
 20 52  1  0  0  0  0
 21 53  1  0  0  0  0
 21 24  1  0  0  0  0
 21 54  1  0  0  0  0
 22 27  1  0  0  0  0
 22 26  1  0  0  0  0
 22 25  1  0  0  0  0
 23 25  1  0  0  0  0
 23 55  1  0  0  0  0
 23 56  1  0  0  0  0
 24 59  1  0  0  0  0
 24 58  1  0  0  0  0
 24 57  1  0  0  0  0
 25 28  2  0  0  0  0
 26 60  1  0  0  0  0
 26 29  2  0  0  0  0
 27 63  1  0  0  0  0
 27 61  1  0  0  0  0
 27 62  1  0  0  0  0
 28 30  1  0  0  0  0
 28 64  1  0  0  0  0
 29 65  1  0  0  0  0
 29 30  1  0  0  0  0
 30 31  2  0  0  0  0
M  END
