decoy-751
 OpenBabel06062114513D

 56 55  0  0  0  0  0  0  0  0999 V2000
   -0.3920    1.5210    0.8360 P   0  0  0  0  0  0  0  0  0  0  0  0
   -0.4090   -0.0340    0.7520 O   0  0  0  0  0  0  0  0  0  0  0  0
    1.0890    1.9060    1.1240 O   0  0  0  0  0  0  0  0  0  0  0  0
   -0.8440    2.1420   -0.5040 O   0  0  0  0  0  0  0  0  0  0  0  0
   -1.2330    1.9710    1.9180 O   0  0  0  0  0  0  0  0  0  0  0  0
   -1.6840   -0.6560    0.4890 C   0  0  0  0  0  0  0  0  0  0  0  0
    1.3820    3.3160    1.2190 C   0  0  0  0  0  0  0  0  0  0  0  0
   -1.5240   -2.2050    0.4090 C   0  0  0  0  0  0  0  0  0  0  0  0
    2.8870    3.5340    1.5650 C   0  0  0  0  0  0  0  0  0  0  0  0
   -2.9230   -2.8860    0.2370 C   0  0  0  0  0  0  0  0  0  0  0  0
   -0.4490   -2.6450   -0.6410 C   0  0  0  0  0  0  0  0  0  0  0  0
    3.2300    5.0610    1.5550 C   0  0  0  0  0  0  0  0  0  0  0  0
    3.3210    2.7740    2.8650 C   0  0  0  0  0  0  0  0  0  0  0  0
   -2.9170   -4.4390    0.2990 C   0  0  0  0  0  0  0  0  0  0  0  0
   -0.7720   -2.3560   -2.1260 C   0  0  0  0  0  0  0  0  0  0  0  0
    4.7350    5.4040    1.7340 C   0  0  0  0  0  0  0  0  0  0  0  0
    2.6910    3.2590    4.1920 C   0  0  0  0  0  0  0  0  0  0  0  0
   -4.3470   -5.0430    0.2870 C   0  0  0  0  0  0  0  0  0  0  0  0
    5.0290    6.9170    1.5510 C   0  0  0  0  0  0  0  0  0  0  0  0
   -4.3430   -6.5870    0.3320 C   0  0  0  0  0  0  0  0  0  0  0  0
    6.5220    7.2630    1.7450 C   0  0  0  0  0  0  0  0  0  0  0  0
   -1.7810    1.8710   -0.6040 H   0  0  0  0  0  0  0  0  0  0  0  0
   -2.3800   -0.4160    1.3000 H   0  0  0  0  0  0  0  0  0  0  0  0
   -2.1130   -0.2910   -0.4490 H   0  0  0  0  0  0  0  0  0  0  0  0
    1.1700    3.7950    0.2580 H   0  0  0  0  0  0  0  0  0  0  0  0
    0.7650    3.7960    1.9840 H   0  0  0  0  0  0  0  0  0  0  0  0
   -1.1430   -2.5200    1.3870 H   0  0  0  0  0  0  0  0  0  0  0  0
    3.4540    3.0820    0.7440 H   0  0  0  0  0  0  0  0  0  0  0  0
   -3.5760   -2.5280    1.0380 H   0  0  0  0  0  0  0  0  0  0  0  0
   -3.3690   -2.5700   -0.7090 H   0  0  0  0  0  0  0  0  0  0  0  0
    0.4990   -2.1550   -0.4050 H   0  0  0  0  0  0  0  0  0  0  0  0
   -0.2670   -3.7170   -0.5370 H   0  0  0  0  0  0  0  0  0  0  0  0
    2.9100    5.4750    0.5940 H   0  0  0  0  0  0  0  0  0  0  0  0
    2.6550    5.5700    2.3330 H   0  0  0  0  0  0  0  0  0  0  0  0
    3.0840    1.7130    2.7510 H   0  0  0  0  0  0  0  0  0  0  0  0
    4.4070    2.8310    2.9650 H   0  0  0  0  0  0  0  0  0  0  0  0
   -2.3700   -4.8330   -0.5610 H   0  0  0  0  0  0  0  0  0  0  0  0
   -2.4040   -4.7590    1.2090 H   0  0  0  0  0  0  0  0  0  0  0  0
    0.0510   -2.7030   -2.7530 H   0  0  0  0  0  0  0  0  0  0  0  0
   -1.6780   -2.8780   -2.4350 H   0  0  0  0  0  0  0  0  0  0  0  0
   -0.9010   -1.2860   -2.2940 H   0  0  0  0  0  0  0  0  0  0  0  0
    5.0570    5.1100    2.7360 H   0  0  0  0  0  0  0  0  0  0  0  0
    5.3200    4.8380    1.0050 H   0  0  0  0  0  0  0  0  0  0  0  0
    3.0670    2.6510    5.0170 H   0  0  0  0  0  0  0  0  0  0  0  0
    2.9530    4.2990    4.3900 H   0  0  0  0  0  0  0  0  0  0  0  0
    1.6050    3.1620    4.1650 H   0  0  0  0  0  0  0  0  0  0  0  0
   -4.9060   -4.6720    1.1500 H   0  0  0  0  0  0  0  0  0  0  0  0
   -4.8690   -4.7220   -0.6190 H   0  0  0  0  0  0  0  0  0  0  0  0
    4.7280    7.2270    0.5460 H   0  0  0  0  0  0  0  0  0  0  0  0
    4.4410    7.4900    2.2740 H   0  0  0  0  0  0  0  0  0  0  0  0
   -5.3690   -6.9590    0.3230 H   0  0  0  0  0  0  0  0  0  0  0  0
   -3.8190   -6.9920   -0.5360 H   0  0  0  0  0  0  0  0  0  0  0  0
   -3.8520   -6.9400    1.2400 H   0  0  0  0  0  0  0  0  0  0  0  0
    6.6730    8.3350    1.6040 H   0  0  0  0  0  0  0  0  0  0  0  0
    6.8470    6.9950    2.7520 H   0  0  0  0  0  0  0  0  0  0  0  0
    7.1340    6.7260    1.0180 H   0  0  0  0  0  0  0  0  0  0  0  0
  1  3  1  0  0  0  0
  1  5  2  0  0  0  0
  1  2  1  0  0  0  0
  1  4  1  0  0  0  0
  2  6  1  0  0  0  0
  3  7  1  0  0  0  0
  4 22  1  0  0  0  0
  6 23  1  0  0  0  0
  6  8  1  0  0  0  0
  6 24  1  0  0  0  0
  7  9  1  0  0  0  0
  7 26  1  0  0  0  0
  7 25  1  0  0  0  0
  8 27  1  0  0  0  0
  8 10  1  0  0  0  0
  8 11  1  0  0  0  0
  9 28  1  0  0  0  0
  9 13  1  0  0  0  0
  9 12  1  0  0  0  0
 10 14  1  0  0  0  0
 10 29  1  0  0  0  0
 10 30  1  0  0  0  0
 11 32  1  0  0  0  0
 11 31  1  0  0  0  0
 11 15  1  0  0  0  0
 12 16  1  0  0  0  0
 12 34  1  0  0  0  0
 12 33  1  0  0  0  0
 13 36  1  0  0  0  0
 13 17  1  0  0  0  0
 13 35  1  0  0  0  0
 14 38  1  0  0  0  0
 14 18  1  0  0  0  0
 14 37  1  0  0  0  0
 15 39  1  0  0  0  0
 15 40  1  0  0  0  0
 15 41  1  0  0  0  0
 16 42  1  0  0  0  0
 16 19  1  0  0  0  0
 16 43  1  0  0  0  0
 17 45  1  0  0  0  0
 17 44  1  0  0  0  0
 17 46  1  0  0  0  0
 18 20  1  0  0  0  0
 18 47  1  0  0  0  0
 18 48  1  0  0  0  0
 19 21  1  0  0  0  0
 19 50  1  0  0  0  0
 19 49  1  0  0  0  0
 20 53  1  0  0  0  0
 20 51  1  0  0  0  0
 20 52  1  0  0  0  0
 21 55  1  0  0  0  0
 21 54  1  0  0  0  0
 21 56  1  0  0  0  0
M  END
