decoy-275
 OpenBabel06062114513D

 61 66  0  0  0  0  0  0  0  0999 V2000
    0.1340    1.8740   -0.0800 C   0  0  0  0  0  0  0  0  0  0  0  0
   -0.4330    0.6630    0.0140 C   0  0  0  0  0  0  0  0  0  0  0  0
    1.5830    1.7590   -0.1630 C   0  0  0  0  0  0  0  0  0  0  0  0
   -0.5630    3.0800   -0.0710 C   0  0  0  0  0  0  0  0  0  0  0  0
    0.5290   -0.2780    0.0220 C   0  0  0  0  0  0  0  0  0  0  0  0
   -1.7970    0.4150    0.0910 C   0  0  0  0  0  0  0  0  0  0  0  0
    1.7290    0.3130   -0.0670 C   0  0  0  0  0  0  0  0  0  0  0  0
    2.1340    2.3110   -1.4570 C   0  0  0  0  0  0  0  0  0  0  0  0
    2.3140    2.5200    1.4700 Br  0  0  0  0  0  0  0  0  0  0  0  0
   -0.9760    3.6840   -1.2800 C   0  0  0  0  0  0  0  0  0  0  0  0
   -0.9140    3.6900    1.1560 C   0  0  0  0  0  0  0  0  0  0  0  0
    0.3100   -1.6470    0.1090 C   0  0  0  0  0  0  0  0  0  0  0  0
   -2.5590    0.2590   -1.0880 C   0  0  0  0  0  0  0  0  0  0  0  0
   -2.4360    0.3180    1.3480 C   0  0  0  0  0  0  0  0  0  0  0  0
    2.9490   -0.3570   -0.0410 C   0  0  0  0  0  0  0  0  0  0  0  0
    3.1260    3.3250   -1.4950 C   0  0  0  0  0  0  0  0  0  0  0  0
    1.6630    1.8180   -2.7050 C   0  0  0  0  0  0  0  0  0  0  0  0
   -1.7030    4.8890   -1.2640 C   0  0  0  0  0  0  0  0  0  0  0  0
   -1.6400    4.8950    1.1710 C   0  0  0  0  0  0  0  0  0  0  0  0
    0.1810   -2.4230   -1.0650 C   0  0  0  0  0  0  0  0  0  0  0  0
    0.2150   -2.2770    1.3710 C   0  0  0  0  0  0  0  0  0  0  0  0
   -3.9420    0.0090   -1.0100 C   0  0  0  0  0  0  0  0  0  0  0  0
   -3.8190    0.0680    1.4230 C   0  0  0  0  0  0  0  0  0  0  0  0
    3.5730   -0.7670   -1.2420 C   0  0  0  0  0  0  0  0  0  0  0  0
    3.5560   -0.6850    1.1940 C   0  0  0  0  0  0  0  0  0  0  0  0
    3.6220    3.8210   -2.7150 C   0  0  0  0  0  0  0  0  0  0  0  0
    2.1560    2.3110   -3.9260 C   0  0  0  0  0  0  0  0  0  0  0  0
   -2.0320    5.4970   -0.0390 C   0  0  0  0  0  0  0  0  0  0  0  0
   -0.0390   -3.8100   -0.9770 C   0  0  0  0  0  0  0  0  0  0  0  0
   -0.0060   -3.6640    1.4550 C   0  0  0  0  0  0  0  0  0  0  0  0
   -4.5720   -0.0870    0.2440 C   0  0  0  0  0  0  0  0  0  0  0  0
    4.7930   -1.4670   -1.2080 C   0  0  0  0  0  0  0  0  0  0  0  0
    4.7760   -1.3850    1.2250 C   0  0  0  0  0  0  0  0  0  0  0  0
    3.1370    3.3150   -3.9310 C   0  0  0  0  0  0  0  0  0  0  0  0
   -0.1330   -4.4310    0.2820 C   0  0  0  0  0  0  0  0  0  0  0  0
    5.3970   -1.7730    0.0240 C   0  0  0  0  0  0  0  0  0  0  0  0
   -0.7630    3.2500   -2.1810 H   0  0  0  0  0  0  0  0  0  0  0  0
   -0.6480    3.2610    2.0460 H   0  0  0  0  0  0  0  0  0  0  0  0
   -2.1150    0.3260   -2.0080 H   0  0  0  0  0  0  0  0  0  0  0  0
   -1.9010    0.4280    2.2140 H   0  0  0  0  0  0  0  0  0  0  0  0
    3.5080    3.7220   -0.6370 H   0  0  0  0  0  0  0  0  0  0  0  0
    0.9480    1.0880   -2.7340 H   0  0  0  0  0  0  0  0  0  0  0  0
   -1.9960    5.3210   -2.1430 H   0  0  0  0  0  0  0  0  0  0  0  0
   -1.8880    5.3320    2.0610 H   0  0  0  0  0  0  0  0  0  0  0  0
    0.2470   -1.9850   -1.9880 H   0  0  0  0  0  0  0  0  0  0  0  0
    0.3060   -1.7320    2.2330 H   0  0  0  0  0  0  0  0  0  0  0  0
   -4.4900   -0.1040   -1.8660 H   0  0  0  0  0  0  0  0  0  0  0  0
   -4.2770   -0.0020    2.3340 H   0  0  0  0  0  0  0  0  0  0  0  0
    3.1420   -0.5710   -2.1480 H   0  0  0  0  0  0  0  0  0  0  0  0
    3.1130   -0.4210    2.0780 H   0  0  0  0  0  0  0  0  0  0  0  0
    4.3380    4.5520   -2.7170 H   0  0  0  0  0  0  0  0  0  0  0  0
    1.8000    1.9400   -4.8100 H   0  0  0  0  0  0  0  0  0  0  0  0
   -2.5620    6.3710   -0.0280 H   0  0  0  0  0  0  0  0  0  0  0  0
   -0.1320   -4.3680   -1.8290 H   0  0  0  0  0  0  0  0  0  0  0  0
   -0.0740   -4.1160    2.3700 H   0  0  0  0  0  0  0  0  0  0  0  0
   -5.5760   -0.2680    0.3000 H   0  0  0  0  0  0  0  0  0  0  0  0
    5.2390   -1.7580   -2.0810 H   0  0  0  0  0  0  0  0  0  0  0  0
    5.2100   -1.6150    2.1220 H   0  0  0  0  0  0  0  0  0  0  0  0
    3.4980    3.6750   -4.8170 H   0  0  0  0  0  0  0  0  0  0  0  0
   -0.2940   -5.4380    0.3450 H   0  0  0  0  0  0  0  0  0  0  0  0
    6.2820   -2.2840    0.0480 H   0  0  0  0  0  0  0  0  0  0  0  0
  1  4  1  0  0  0  0
  1  2  2  0  0  0  0
  1  3  1  0  0  0  0
  2  5  1  0  0  0  0
  2  6  1  0  0  0  0
  3  7  1  0  0  0  0
  3  9  1  0  0  0  0
  3  8  1  0  0  0  0
  4 11  2  0  0  0  0
  4 10  1  0  0  0  0
  5 12  1  0  0  0  0
  5  7  2  0  0  0  0
  6 14  2  0  0  0  0
  6 13  1  0  0  0  0
  7 15  1  0  0  0  0
  8 16  2  0  0  0  0
  8 17  1  0  0  0  0
 10 18  2  0  0  0  0
 10 37  1  0  0  0  0
 11 19  1  0  0  0  0
 11 38  1  0  0  0  0
 12 21  2  0  0  0  0
 12 20  1  0  0  0  0
 13 22  2  0  0  0  0
 13 39  1  0  0  0  0
 14 23  1  0  0  0  0
 14 40  1  0  0  0  0
 15 25  2  0  0  0  0
 15 24  1  0  0  0  0
 16 41  1  0  0  0  0
 16 26  1  0  0  0  0
 17 27  2  0  0  0  0
 17 42  1  0  0  0  0
 18 28  1  0  0  0  0
 18 43  1  0  0  0  0
 19 44  1  0  0  0  0
 19 28  2  0  0  0  0
 20 29  2  0  0  0  0
 20 45  1  0  0  0  0
 21 30  1  0  0  0  0
 21 46  1  0  0  0  0
 22 31  1  0  0  0  0
 22 47  1  0  0  0  0
 23 48  1  0  0  0  0
 23 31  2  0  0  0  0
 24 32  2  0  0  0  0
 24 49  1  0  0  0  0
 25 33  1  0  0  0  0
 25 50  1  0  0  0  0
 26 34  2  0  0  0  0
 26 51  1  0  0  0  0
 27 34  1  0  0  0  0
 27 52  1  0  0  0  0
 28 53  1  0  0  0  0
 29 35  1  0  0  0  0
 29 54  1  0  0  0  0
 30 55  1  0  0  0  0
 30 35  2  0  0  0  0
 31 56  1  0  0  0  0
 32 36  1  0  0  0  0
 32 57  1  0  0  0  0
 33 58  1  0  0  0  0
 33 36  2  0  0  0  0
 34 59  1  0  0  0  0
 35 60  1  0  0  0  0
 36 61  1  0  0  0  0
M  END
