decoy-389
 OpenBabel06062114513D

 28 29  0  0  0  0  0  0  0  0999 V2000
   -0.0220    1.4890   -0.0840 C   0  0  0  0  0  0  0  0  0  0  0  0
   -0.0880   -0.0160    0.0300 C   0  0  0  0  0  0  0  0  0  0  0  0
    1.3460    1.9390   -0.5310 C   0  0  0  0  0  0  0  0  0  0  0  0
   -1.2720    2.0890   -0.8220 C   0  0  0  0  0  0  0  0  0  0  0  0
   -0.4600   -0.6940    1.2290 C   0  0  0  0  0  0  0  0  0  0  0  0
    0.2620   -0.8100   -1.0940 C   0  0  0  0  0  0  0  0  0  0  0  0
    1.5940    2.6660   -1.7230 C   0  0  0  0  0  0  0  0  0  0  0  0
    2.4620    1.6300    0.2890 C   0  0  0  0  0  0  0  0  0  0  0  0
   -1.5910    1.5000   -2.4550 Cl  0  0  0  0  0  0  0  0  0  0  0  0
   -2.7640    1.8210    0.0800 Cl  0  0  0  0  0  0  0  0  0  0  0  0
   -0.4950   -2.1050    1.2700 C   0  0  0  0  0  0  0  0  0  0  0  0
   -0.8850    0.0990    2.6700 Cl  0  0  0  0  0  0  0  0  0  0  0  0
    0.2260   -2.2140   -1.0450 C   0  0  0  0  0  0  0  0  0  0  0  0
    2.8970    3.0540   -2.0850 C   0  0  0  0  0  0  0  0  0  0  0  0
    3.7670    2.0160   -0.0680 C   0  0  0  0  0  0  0  0  0  0  0  0
   -0.1570   -2.8620    0.1380 C   0  0  0  0  0  0  0  0  0  0  0  0
    3.9880    2.7290   -1.2600 C   0  0  0  0  0  0  0  0  0  0  0  0
    5.5550    3.1960   -1.6950 Cl  0  0  0  0  0  0  0  0  0  0  0  0
   -0.0980    1.9270    0.9130 H   0  0  0  0  0  0  0  0  0  0  0  0
   -1.1530    3.1720   -0.8880 H   0  0  0  0  0  0  0  0  0  0  0  0
    0.5620   -0.3690   -1.9660 H   0  0  0  0  0  0  0  0  0  0  0  0
    0.8330    2.9260   -2.3480 H   0  0  0  0  0  0  0  0  0  0  0  0
    2.3310    1.1140    1.1630 H   0  0  0  0  0  0  0  0  0  0  0  0
   -0.7660   -2.5940    2.1270 H   0  0  0  0  0  0  0  0  0  0  0  0
    0.4820   -2.7630   -1.8690 H   0  0  0  0  0  0  0  0  0  0  0  0
    3.0450    3.5760   -2.9530 H   0  0  0  0  0  0  0  0  0  0  0  0
    4.5510    1.7750    0.5430 H   0  0  0  0  0  0  0  0  0  0  0  0
   -0.1830   -3.8840    0.1760 H   0  0  0  0  0  0  0  0  0  0  0  0
  1  2  1  0  0  0  0
  1 19  1  0  0  0  0
  1  3  1  0  0  0  0
  1  4  1  0  0  0  0
  2  5  2  0  0  0  0
  2  6  1  0  0  0  0
  3  8  2  0  0  0  0
  3  7  1  0  0  0  0
  4 10  1  0  0  0  0
  4  9  1  0  0  0  0
  4 20  1  0  0  0  0
  5 11  1  0  0  0  0
  5 12  1  0  0  0  0
  6 13  2  0  0  0  0
  6 21  1  0  0  0  0
  7 14  2  0  0  0  0
  7 22  1  0  0  0  0
  8 23  1  0  0  0  0
  8 15  1  0  0  0  0
 11 24  1  0  0  0  0
 11 16  2  0  0  0  0
 13 16  1  0  0  0  0
 13 25  1  0  0  0  0
 14 17  1  0  0  0  0
 14 26  1  0  0  0  0
 15 27  1  0  0  0  0
 15 17  2  0  0  0  0
 16 28  1  0  0  0  0
 17 18  1  0  0  0  0
M  END
