
  ACD/Labs06062114563D

 49 52  0  0  0  0  0  0  0  0  2 V2000
   15.7367   -7.6513    0.5236 C   0  0  0  0  0  0  0  0  0  0  0  0
   15.8261   -8.9634    0.4122 N   0  3  0  0  0  0  0  0  0  0  0  0
   17.0181   -7.2056    0.3924 C   0  0  0  0  0  0  0  0  0  0  0  0
   14.6587   -6.8147    0.7271 C   0  0  0  0  0  0  0  0  0  0  0  0
   17.1395   -9.1969    0.2245 C   0  0  0  0  0  0  0  0  0  0  0  0
   14.7220   -9.9351    0.4822 C   0  0  0  0  0  0  0  0  0  0  0  0
   17.7810   -8.1466    0.2213 O   0  0  0  0  0  0  0  0  0  0  0  0
   17.3035   -5.8548    0.4577 C   0  0  0  0  0  0  0  0  0  0  0  0
   14.9290   -5.4521    0.7934 C   0  0  0  0  0  0  0  0  0  0  0  0
   17.7424  -10.5768    0.0389 C   0  0  0  0  0  0  0  0  0  0  0  0
   14.4860  -10.5791   -0.8870 C   0  0  0  0  0  0  0  0  0  0  0  0
   16.2369   -4.9797    0.6600 C   0  0  0  0  0  0  0  0  0  0  0  0
   19.2582  -10.5475   -0.2042 C   0  0  0  0  0  0  0  0  0  0  0  0
   19.6936  -12.0011   -0.4430 C   0  0  0  0  0  0  0  0  0  0  0  0
   21.1925  -12.1457   -0.6267 C   0  0  0  0  0  0  0  0  0  0  0  0
   21.8071  -13.2878   -0.9911 N   0  3  0  0  0  0  0  0  0  0  0  0
   22.0050  -11.2366   -0.4633 O   0  0  0  0  0  0  0  0  0  0  0  0
   23.0888  -12.9695   -1.0325 C   0  0  0  0  0  0  0  0  0  0  0  0
   21.2105  -14.6017   -1.2888 C   0  0  0  0  0  0  0  0  0  0  0  0
   23.1325  -11.6526   -0.6865 C   0  0  0  0  0  0  0  0  0  0  0  0
   24.2128  -13.7085   -1.3451 C   0  0  0  0  0  0  0  0  0  0  0  0
   20.1530  -14.4665   -2.3881 C   0  0  0  0  0  0  0  0  0  0  0  0
   24.3379  -10.9769   -0.6304 C   0  0  0  0  0  0  0  0  0  0  0  0
   25.4317  -13.0397   -1.2943 C   0  0  0  0  0  0  0  0  0  0  0  0
   25.4925  -11.6913   -0.9409 C   0  0  0  0  0  0  0  0  0  0  0  0
   13.6283   -7.2168    0.8320 H   0  0  0  0  0  0  0  0  0  0  0  0
   14.9878  -10.7144    1.2281 H   0  0  0  0  0  0  0  0  0  0  0  0
   13.8059   -9.4012    0.8141 H   0  0  0  0  0  0  0  0  0  0  0  0
   18.3467   -5.4876    0.3521 H   0  0  0  0  0  0  0  0  0  0  0  0
   14.0946   -4.7363    0.9540 H   0  0  0  0  0  0  0  0  0  0  0  0
   17.5384  -11.1717    0.9547 H   0  0  0  0  0  0  0  0  0  0  0  0
   17.2495  -11.0575   -0.8331 H   0  0  0  0  0  0  0  0  0  0  0  0
   14.4801   -9.7911   -1.6704 H   0  0  0  0  0  0  0  0  0  0  0  0
   15.2993  -11.3058   -1.0991 H   0  0  0  0  0  0  0  0  0  0  0  0
   13.5078  -11.1060   -0.8844 H   0  0  0  0  0  0  0  0  0  0  0  0
   16.4325   -3.8875    0.7157 H   0  0  0  0  0  0  0  0  0  0  0  0
   19.4911   -9.9264   -1.0954 H   0  0  0  0  0  0  0  0  0  0  0  0
   19.7805  -10.1322    0.6841 H   0  0  0  0  0  0  0  0  0  0  0  0
   19.3878  -12.6160    0.4303 H   0  0  0  0  0  0  0  0  0  0  0  0
   19.1913  -12.3810   -1.3582 H   0  0  0  0  0  0  0  0  0  0  0  0
   22.0187  -15.2883   -1.6198 H   0  0  0  0  0  0  0  0  0  0  0  0
   20.7462  -14.9960   -0.3597 H   0  0  0  0  0  0  0  0  0  0  0  0
   24.1405  -14.7819   -1.6222 H   0  0  0  0  0  0  0  0  0  0  0  0
   20.6549  -14.3800   -3.3756 H   0  0  0  0  0  0  0  0  0  0  0  0
   19.4975  -15.3636   -2.3833 H   0  0  0  0  0  0  0  0  0  0  0  0
   19.5410  -13.5578   -2.2030 H   0  0  0  0  0  0  0  0  0  0  0  0
   24.3771   -9.9033   -0.3473 H   0  0  0  0  0  0  0  0  0  0  0  0
   26.3664  -13.5884   -1.5384 H   0  0  0  0  0  0  0  0  0  0  0  0
   26.4770  -11.1777   -0.9061 H   0  0  0  0  0  0  0  0  0  0  0  0
  1  2  1  0  0  0  0
  1  3  2  0  0  0  0
  1  4  1  0  0  0  0
  2  6  1  0  0  0  0
  2  5  2  0  0  0  0
  3  7  1  0  0  0  0
  3  8  1  0  0  0  0
  4  9  2  0  0  0  0
  5 10  1  0  0  0  0
  5  7  1  0  0  0  0
  6 11  1  0  0  0  0
  8 12  2  0  0  0  0
  9 12  1  0  0  0  0
 10 13  1  0  0  0  0
 13 14  1  0  0  0  0
 14 15  1  0  0  0  0
 15 17  1  0  0  0  0
 15 16  2  0  0  0  0
 16 18  1  0  0  0  0
 16 19  1  0  0  0  0
 17 20  1  0  0  0  0
 18 20  2  0  0  0  0
 18 21  1  0  0  0  0
 19 22  1  0  0  0  0
 20 23  1  0  0  0  0
 21 24  2  0  0  0  0
 23 25  2  0  0  0  0
 24 25  1  0  0  0  0
 26  4  1  0  0  0  0
 27  6  1  0  0  0  0
 28  6  1  0  0  0  0
 29  8  1  0  0  0  0
 30  9  1  0  0  0  0
 31 10  1  0  0  0  0
 32 10  1  0  0  0  0
 33 11  1  0  0  0  0
 34 11  1  0  0  0  0
 35 11  1  0  0  0  0
 36 12  1  0  0  0  0
 37 13  1  0  0  0  0
 38 13  1  0  0  0  0
 39 14  1  0  0  0  0
 40 14  1  0  0  0  0
 41 19  1  0  0  0  0
 42 19  1  0  0  0  0
 43 21  1  0  0  0  0
 44 22  1  0  0  0  0
 45 22  1  0  0  0  0
 46 22  1  0  0  0  0
 47 23  1  0  0  0  0
 48 24  1  0  0  0  0
 49 25  1  0  0  0  0
M  CHG  2   2   1  16   1
M  END
