decoy-65
 OpenBabel06062114503D

 33 33  0  0  0  0  0  0  0  0999 V2000
   -0.0190    1.4310   -0.0720 C   0  0  0  0  0  0  0  0  0  0  0  0
   -0.1920    0.0110   -0.1760 N   0  0  0  0  0  0  0  0  0  0  0  0
    1.4920    1.7650    0.0770 C   0  0  0  0  0  0  0  0  0  0  0  0
   -0.7840    2.0090    1.0590 C   0  0  0  0  0  0  0  0  0  0  0  0
   -1.3230   -0.6150   -0.5680 C   0  0  0  0  0  0  0  0  0  0  0  0
    2.4780    1.2790   -1.3600 S   0  0  0  0  0  0  0  0  0  0  0  0
   -0.8830    3.3510    1.1920 O   0  0  0  0  0  0  0  0  0  0  0  0
   -1.3980    1.2380    1.9850 O   0  0  0  0  0  0  0  0  0  0  0  0
   -1.2950   -1.9700   -0.6360 O   0  0  0  0  0  0  0  0  0  0  0  0
   -2.4440    0.0760   -0.8890 O   0  0  0  0  0  0  0  0  0  0  0  0
    4.0780    1.7590   -1.1780 N   0  0  0  0  0  0  0  0  0  0  0  0
    2.4530   -0.2860   -1.6420 O   0  0  0  0  0  0  0  0  0  0  0  0
    1.9300    1.9850   -2.6750 O   0  0  0  0  0  0  0  0  0  0  0  0
   -2.3770   -2.8200   -1.0300 C   0  0  0  0  0  0  0  0  0  0  0  0
   -1.9300   -4.2330   -1.0000 C   0  0  0  0  0  0  0  0  0  0  0  0
   -2.5250   -5.1770   -0.1290 C   0  0  0  0  0  0  0  0  0  0  0  0
   -0.8900   -4.6610   -1.8570 C   0  0  0  0  0  0  0  0  0  0  0  0
   -2.0870   -6.5140   -0.1150 C   0  0  0  0  0  0  0  0  0  0  0  0
   -0.4520   -5.9990   -1.8430 C   0  0  0  0  0  0  0  0  0  0  0  0
   -1.0510   -6.9260   -0.9720 C   0  0  0  0  0  0  0  0  0  0  0  0
   -0.3810    1.8950   -0.9940 H   0  0  0  0  0  0  0  0  0  0  0  0
    0.5780   -0.5480    0.0150 H   0  0  0  0  0  0  0  0  0  0  0  0
    1.6240    2.8420    0.2030 H   0  0  0  0  0  0  0  0  0  0  0  0
    1.9010    1.2670    0.9590 H   0  0  0  0  0  0  0  0  0  0  0  0
    4.3950    2.5650   -1.6140 H   0  0  0  0  0  0  0  0  0  0  0  0
    4.6780    1.2420   -0.6180 H   0  0  0  0  0  0  0  0  0  0  0  0
   -3.2210   -2.6530   -0.3550 H   0  0  0  0  0  0  0  0  0  0  0  0
   -2.6970   -2.5670   -2.0430 H   0  0  0  0  0  0  0  0  0  0  0  0
   -3.2790   -4.8970    0.5030 H   0  0  0  0  0  0  0  0  0  0  0  0
   -0.4440   -3.9990   -2.4980 H   0  0  0  0  0  0  0  0  0  0  0  0
   -2.5230   -7.1880    0.5190 H   0  0  0  0  0  0  0  0  0  0  0  0
    0.3010   -6.2970   -2.4670 H   0  0  0  0  0  0  0  0  0  0  0  0
   -0.7330   -7.8970   -0.9610 H   0  0  0  0  0  0  0  0  0  0  0  0
  1 21  1  0  0  0  0
  1  3  1  0  0  0  0
  1  4  1  0  0  0  0
  1  2  1  0  0  0  0
  2 22  1  0  0  0  0
  2  5  1  0  0  0  0
  3 23  1  0  0  0  0
  3 24  1  0  0  0  0
  3  6  1  0  0  0  0
  4  7  2  0  0  0  0
  4  8  1  0  0  0  0
  5  9  1  0  0  0  0
  5 10  2  0  0  0  0
  6 11  1  0  0  0  0
  6 12  2  0  0  0  0
  6 13  2  0  0  0  0
  9 14  1  0  0  0  0
 11 26  1  0  0  0  0
 11 25  1  0  0  0  0
 14 15  1  0  0  0  0
 14 27  1  0  0  0  0
 14 28  1  0  0  0  0
 15 16  2  0  0  0  0
 15 17  1  0  0  0  0
 16 18  1  0  0  0  0
 16 29  1  0  0  0  0
 17 19  2  0  0  0  0
 17 30  1  0  0  0  0
 18 31  1  0  0  0  0
 18 20  2  0  0  0  0
 19 20  1  0  0  0  0
 19 32  1  0  0  0  0
 20 33  1  0  0  0  0
M  END
