decoy-667
 OpenBabel06062114513D

 87 93  0  0  0  0  0  0  0  0999 V2000
    0.0520    1.5100   -0.0560 C   0  0  0  0  0  0  0  0  0  0  0  0
    0.0440    0.1010   -0.3110 C   0  0  0  0  0  0  0  0  0  0  0  0
    1.3150    2.3140    0.2770 C   0  0  0  0  0  0  0  0  0  0  0  0
   -1.2200    2.1680   -0.0570 C   0  0  0  0  0  0  0  0  0  0  0  0
   -1.1310   -0.5400   -0.7820 C   0  0  0  0  0  0  0  0  0  0  0  0
    1.1850   -0.6510   -0.2340 O   0  0  0  0  0  0  0  0  0  0  0  0
    2.6610    1.7950   -0.4060 C   0  0  0  0  0  0  0  0  0  0  0  0
    1.1250    3.8450    0.1420 C   0  0  0  0  0  0  0  0  0  0  0  0
   -2.3940    1.4880   -0.4500 C   0  0  0  0  0  0  0  0  0  0  0  0
   -1.4120    3.5860    0.3220 C   0  0  0  0  0  0  0  0  0  0  0  0
   -2.3550    0.1410   -0.8220 C   0  0  0  0  0  0  0  0  0  0  0  0
   -1.1190   -1.8140   -1.2430 O   0  0  0  0  0  0  0  0  0  0  0  0
    1.2660   -1.5610    0.7890 C   0  0  0  0  0  0  0  0  0  0  0  0
    3.6820    1.1210    0.4670 C   0  0  0  0  0  0  0  0  0  0  0  0
   -0.1370    4.2440    0.8800 C   0  0  0  0  0  0  0  0  0  0  0  0
    2.2290    4.6580    0.7960 C   0  0  0  0  0  0  0  0  0  0  0  0
    1.0360    4.2850   -1.3090 C   0  0  0  0  0  0  0  0  0  0  0  0
   -3.4930   -0.4750   -1.2740 O   0  0  0  0  0  0  0  0  0  0  0  0
    1.7270   -1.1870    2.0690 C   0  0  0  0  0  0  0  0  0  0  0  0
    1.1040   -2.9310    0.5000 C   0  0  0  0  0  0  0  0  0  0  0  0
    4.3390   -0.0790    0.0830 C   0  0  0  0  0  0  0  0  0  0  0  0
    4.1200    1.7500    1.6560 C   0  0  0  0  0  0  0  0  0  0  0  0
   -4.2530   -1.1000   -0.2250 C   0  0  0  0  0  0  0  0  0  0  0  0
    2.1040   -2.1680    3.0060 C   0  0  0  0  0  0  0  0  0  0  0  0
    1.4060   -3.9080    1.4610 C   0  0  0  0  0  0  0  0  0  0  0  0
    5.3890   -0.6390    0.8530 C   0  0  0  0  0  0  0  0  0  0  0  0
    5.1520    1.2120    2.4360 C   0  0  0  0  0  0  0  0  0  0  0  0
    1.9980   -3.5430    2.6920 C   0  0  0  0  0  0  0  0  0  0  0  0
    6.0310   -1.7660    0.3740 O   0  0  0  0  0  0  0  0  0  0  0  0
    5.8030    0.0410    2.0260 C   0  0  0  0  0  0  0  0  0  0  0  0
    2.6190   -4.5920    3.5520 C   0  0  0  0  0  0  0  0  0  0  0  0
    6.1210   -2.8230    1.2530 C   0  0  0  0  0  0  0  0  0  0  0  0
    6.8490   -0.3720    2.7760 O   0  0  0  0  0  0  0  0  0  0  0  0
    3.7690   -5.4070    2.8570 C   0  0  0  0  0  0  0  0  0  0  0  0
    4.9750   -3.5720    1.5810 C   0  0  0  0  0  0  0  0  0  0  0  0
    7.3720   -3.1960    1.7920 C   0  0  0  0  0  0  0  0  0  0  0  0
    5.0050   -4.5990    2.5570 C   0  0  0  0  0  0  0  0  0  0  0  0
    4.0380   -6.6640    3.6520 C   0  0  0  0  0  0  0  0  0  0  0  0
    7.4180   -4.2260    2.7580 C   0  0  0  0  0  0  0  0  0  0  0  0
    8.4880   -2.5620    1.2920 O   0  0  0  0  0  0  0  0  0  0  0  0
    6.2450   -4.8880    3.1870 C   0  0  0  0  0  0  0  0  0  0  0  0
    5.0050   -6.4390    4.7670 C   0  0  0  0  0  0  0  0  0  0  0  0
    4.3830   -7.8560    2.8150 C   0  0  0  0  0  0  0  0  0  0  0  0
    9.5740   -2.2410    2.1800 C   0  0  0  0  0  0  0  0  0  0  0  0
    6.3690   -5.9110    4.2590 C   0  0  0  0  0  0  0  0  0  0  0  0
    1.4270    2.1180    1.3470 H   0  0  0  0  0  0  0  0  0  0  0  0
    2.4220    1.1760   -1.2720 H   0  0  0  0  0  0  0  0  0  0  0  0
    3.2110    2.6210   -0.8460 H   0  0  0  0  0  0  0  0  0  0  0  0
   -3.2940    1.9770   -0.4810 H   0  0  0  0  0  0  0  0  0  0  0  0
   -1.7500    4.1420   -0.5570 H   0  0  0  0  0  0  0  0  0  0  0  0
   -2.1950    3.6630    1.0840 H   0  0  0  0  0  0  0  0  0  0  0  0
   -0.2390   -1.9270   -1.6590 H   0  0  0  0  0  0  0  0  0  0  0  0
   -0.0610    3.9610    1.9370 H   0  0  0  0  0  0  0  0  0  0  0  0
   -0.2970    5.3290    0.8600 H   0  0  0  0  0  0  0  0  0  0  0  0
    3.2100    4.4780    0.3580 H   0  0  0  0  0  0  0  0  0  0  0  0
    2.0490    5.7340    0.6990 H   0  0  0  0  0  0  0  0  0  0  0  0
    2.3010    4.4470    1.8660 H   0  0  0  0  0  0  0  0  0  0  0  0
    0.3490    3.6610   -1.8830 H   0  0  0  0  0  0  0  0  0  0  0  0
    0.6860    5.3180   -1.3940 H   0  0  0  0  0  0  0  0  0  0  0  0
    1.9990    4.2430   -1.8200 H   0  0  0  0  0  0  0  0  0  0  0  0
    1.8650   -0.2010    2.2940 H   0  0  0  0  0  0  0  0  0  0  0  0
    0.8250   -3.2340   -0.4330 H   0  0  0  0  0  0  0  0  0  0  0  0
    4.0710   -0.5430   -0.7880 H   0  0  0  0  0  0  0  0  0  0  0  0
    3.7050    2.6210    1.9700 H   0  0  0  0  0  0  0  0  0  0  0  0
   -5.1300   -1.5670   -0.6720 H   0  0  0  0  0  0  0  0  0  0  0  0
   -3.6730   -1.8780    0.2780 H   0  0  0  0  0  0  0  0  0  0  0  0
   -4.5940   -0.3670    0.5100 H   0  0  0  0  0  0  0  0  0  0  0  0
    2.5190   -1.8690    3.8920 H   0  0  0  0  0  0  0  0  0  0  0  0
    1.2920   -4.8920    1.2090 H   0  0  0  0  0  0  0  0  0  0  0  0
    5.4540    1.7000    3.2830 H   0  0  0  0  0  0  0  0  0  0  0  0
    3.0090   -4.1470    4.4710 H   0  0  0  0  0  0  0  0  0  0  0  0
    1.8210   -5.2780    3.8460 H   0  0  0  0  0  0  0  0  0  0  0  0
    7.5130   -0.6750    2.1260 H   0  0  0  0  0  0  0  0  0  0  0  0
    3.3820   -5.7290    1.8860 H   0  0  0  0  0  0  0  0  0  0  0  0
    4.1140   -3.3570    1.0830 H   0  0  0  0  0  0  0  0  0  0  0  0
    8.3170   -4.4980    3.1590 H   0  0  0  0  0  0  0  0  0  0  0  0
    4.5800   -5.7100    5.4620 H   0  0  0  0  0  0  0  0  0  0  0  0
    5.1580   -7.3590    5.3390 H   0  0  0  0  0  0  0  0  0  0  0  0
    4.5560   -8.7340    3.4410 H   0  0  0  0  0  0  0  0  0  0  0  0
    3.5510   -8.0950    2.1490 H   0  0  0  0  0  0  0  0  0  0  0  0
    5.2720   -7.6760    2.2070 H   0  0  0  0  0  0  0  0  0  0  0  0
   10.2440   -1.5540    1.6620 H   0  0  0  0  0  0  0  0  0  0  0  0
    9.2220   -1.7570    3.0930 H   0  0  0  0  0  0  0  0  0  0  0  0
   10.1410   -3.1370    2.4350 H   0  0  0  0  0  0  0  0  0  0  0  0
    6.9610   -6.7470    3.8770 H   0  0  0  0  0  0  0  0  0  0  0  0
    6.9050   -5.4830    5.1100 H   0  0  0  0  0  0  0  0  0  0  0  0
    3.1530   -6.9120    4.1010 H   0  0  0  0  0  0  0  0  0  0  0  0
  1  3  1  0  0  0  0
  1  2  2  0  0  0  0
  1  4  1  0  0  0  0
  2  6  1  0  0  0  0
  2  5  1  0  0  0  0
  3 46  1  0  0  0  0
  3  7  1  0  0  0  0
  3  8  1  0  0  0  0
  4 10  1  0  0  0  0
  4  9  2  0  0  0  0
  5 11  2  0  0  0  0
  5 12  1  0  0  0  0
  6 13  1  0  0  0  0
  7 14  1  0  0  0  0
  7 47  1  0  0  0  0
  7 48  1  0  0  0  0
  8 16  1  0  0  0  0
  8 15  1  0  0  0  0
  8 17  1  0  0  0  0
  9 11  1  0  0  0  0
  9 49  1  0  0  0  0
 10 15  1  0  0  0  0
 10 51  1  0  0  0  0
 10 50  1  0  0  0  0
 11 18  1  0  0  0  0
 12 52  1  0  0  0  0
 13 19  2  0  0  0  0
 13 20  1  0  0  0  0
 14 22  2  0  0  0  0
 14 21  1  0  0  0  0
 15 53  1  0  0  0  0
 15 54  1  0  0  0  0
 16 57  1  0  0  0  0
 16 55  1  0  0  0  0
 16 56  1  0  0  0  0
 17 58  1  0  0  0  0
 17 59  1  0  0  0  0
 17 60  1  0  0  0  0
 18 23  1  0  0  0  0
 19 61  1  0  0  0  0
 19 24  1  0  0  0  0
 20 25  2  0  0  0  0
 20 62  1  0  0  0  0
 21 26  2  0  0  0  0
 21 63  1  0  0  0  0
 22 64  1  0  0  0  0
 22 27  1  0  0  0  0
 23 66  1  0  0  0  0
 23 67  1  0  0  0  0
 23 65  1  0  0  0  0
 24 68  1  0  0  0  0
 24 28  2  0  0  0  0
 25 28  1  0  0  0  0
 25 69  1  0  0  0  0
 26 30  1  0  0  0  0
 26 29  1  0  0  0  0
 27 70  1  0  0  0  0
 27 30  2  0  0  0  0
 28 31  1  0  0  0  0
 29 32  1  0  0  0  0
 30 33  1  0  0  0  0
 31 72  1  0  0  0  0
 31 71  1  0  0  0  0
 31 34  1  0  0  0  0
 32 35  2  0  0  0  0
 32 36  1  0  0  0  0
 33 73  1  0  0  0  0
 34 74  1  0  0  0  0
 34 38  1  0  0  0  0
 34 37  1  0  0  0  0
 35 37  1  0  0  0  0
 35 75  1  0  0  0  0
 36 39  2  0  0  0  0
 36 40  1  0  0  0  0
 37 41  2  0  0  0  0
 38 87  1  0  0  0  0
 38 42  1  0  0  0  0
 38 43  1  0  0  0  0
 39 76  1  0  0  0  0
 39 41  1  0  0  0  0
 40 44  1  0  0  0  0
 41 45  1  0  0  0  0
 42 78  1  0  0  0  0
 42 77  1  0  0  0  0
 42 45  1  0  0  0  0
 43 79  1  0  0  0  0
 43 80  1  0  0  0  0
 43 81  1  0  0  0  0
 44 84  1  0  0  0  0
 44 83  1  0  0  0  0
 44 82  1  0  0  0  0
 45 86  1  0  0  0  0
 45 85  1  0  0  0  0
M  END
