decoy-269
 OpenBabel06062114513D

 57 60  0  0  0  0  0  0  0  0999 V2000
    1.1600    0.1020   -0.6860 C   0  0  0  0  0  0  0  0  0  0  0  0
    0.1970   -0.8360    0.1500 C   0  0  0  0  0  0  0  0  0  0  0  0
    2.5660   -0.5870   -0.9940 C   0  0  0  0  0  0  0  0  0  0  0  0
    0.4110    0.8050   -1.8840 C   0  0  0  0  0  0  0  0  0  0  0  0
   -1.0950   -0.0450    0.5400 C   0  0  0  0  0  0  0  0  0  0  0  0
    0.9220   -1.4000    1.4120 C   0  0  0  0  0  0  0  0  0  0  0  0
    3.1070   -1.0400    0.3340 C   0  0  0  0  0  0  0  0  0  0  0  0
    3.5880    0.4000   -1.6930 C   0  0  0  0  0  0  0  0  0  0  0  0
    2.4540   -1.8050   -1.9880 C   0  0  0  0  0  0  0  0  0  0  0  0
   -0.9740    1.4250   -1.4990 C   0  0  0  0  0  0  0  0  0  0  0  0
    0.2790   -0.0300   -3.0300 O   0  0  0  0  0  0  0  0  0  0  0  0
   -1.9140    0.4680   -0.6890 C   0  0  0  0  0  0  0  0  0  0  0  0
   -2.1670   -0.6730    1.4590 C   0  0  0  0  0  0  0  0  0  0  0  0
    2.3040   -2.0410    1.0840 C   0  0  0  0  0  0  0  0  0  0  0  0
    4.1250   -0.3770    0.9420 C   0  0  0  0  0  0  0  0  0  0  0  0
    4.1970    1.4310   -0.7170 C   0  0  0  0  0  0  0  0  0  0  0  0
   -3.0870    1.1880    0.0720 C   0  0  0  0  0  0  0  0  0  0  0  0
   -2.4770   -0.6670   -1.6290 C   0  0  0  0  0  0  0  0  0  0  0  0
   -3.4190    0.2230    1.2530 C   0  0  0  0  0  0  0  0  0  0  0  0
    2.9080   -2.6940    2.3650 C   0  0  0  0  0  0  0  0  0  0  0  0
    4.7190    0.7450    0.4480 C   0  0  0  0  0  0  0  0  0  0  0  0
   -4.2480    1.6270   -0.7110 C   0  0  0  0  0  0  0  0  0  0  0  0
    5.5470    1.3320    1.1340 O   0  0  0  0  0  0  0  0  0  0  0  0
   -4.5330    3.0320   -0.9330 C   0  0  0  0  0  0  0  0  0  0  0  0
   -5.0250    0.8020   -1.1740 O   0  0  0  0  0  0  0  0  0  0  0  0
    1.3940    0.9340   -0.0120 H   0  0  0  0  0  0  0  0  0  0  0  0
   -0.0940   -1.6960   -0.4510 H   0  0  0  0  0  0  0  0  0  0  0  0
   -0.7270    0.8260    1.1030 H   0  0  0  0  0  0  0  0  0  0  0  0
    1.0170    1.6490   -2.2200 H   0  0  0  0  0  0  0  0  0  0  0  0
    1.0690   -0.5940    2.1380 H   0  0  0  0  0  0  0  0  0  0  0  0
    0.2810   -2.1530    1.8780 H   0  0  0  0  0  0  0  0  0  0  0  0
    4.4310   -0.1690   -2.1030 H   0  0  0  0  0  0  0  0  0  0  0  0
    3.1380    0.9220   -2.5380 H   0  0  0  0  0  0  0  0  0  0  0  0
    1.6080   -2.4540   -1.7690 H   0  0  0  0  0  0  0  0  0  0  0  0
    3.3590   -2.4160   -1.9460 H   0  0  0  0  0  0  0  0  0  0  0  0
    2.3400   -1.4730   -3.0210 H   0  0  0  0  0  0  0  0  0  0  0  0
   -0.7750    2.3190   -0.9010 H   0  0  0  0  0  0  0  0  0  0  0  0
   -1.4830    1.7670   -2.4040 H   0  0  0  0  0  0  0  0  0  0  0  0
   -0.0220   -0.8960   -2.6930 H   0  0  0  0  0  0  0  0  0  0  0  0
   -2.3700   -1.7040    1.1580 H   0  0  0  0  0  0  0  0  0  0  0  0
   -1.8470   -0.6710    2.5040 H   0  0  0  0  0  0  0  0  0  0  0  0
    2.1280   -2.8950    0.4260 H   0  0  0  0  0  0  0  0  0  0  0  0
    4.4420   -0.6820    1.8310 H   0  0  0  0  0  0  0  0  0  0  0  0
    4.9990    1.9720   -1.2280 H   0  0  0  0  0  0  0  0  0  0  0  0
    3.4430    2.1580   -0.4070 H   0  0  0  0  0  0  0  0  0  0  0  0
   -2.6650    2.0900    0.5360 H   0  0  0  0  0  0  0  0  0  0  0  0
   -1.7120   -1.3530   -1.9730 H   0  0  0  0  0  0  0  0  0  0  0  0
   -2.9410   -0.2290   -2.5150 H   0  0  0  0  0  0  0  0  0  0  0  0
   -3.2330   -1.2720   -1.1270 H   0  0  0  0  0  0  0  0  0  0  0  0
   -4.2840   -0.4090    1.0350 H   0  0  0  0  0  0  0  0  0  0  0  0
   -3.6390    0.7940    2.1610 H   0  0  0  0  0  0  0  0  0  0  0  0
    3.0020   -1.9680    3.1750 H   0  0  0  0  0  0  0  0  0  0  0  0
    3.8920   -3.1140    2.1460 H   0  0  0  0  0  0  0  0  0  0  0  0
    2.2660   -3.5070    2.7140 H   0  0  0  0  0  0  0  0  0  0  0  0
   -4.6840    3.5340    0.0230 H   0  0  0  0  0  0  0  0  0  0  0  0
   -5.4310    3.1730   -1.5400 H   0  0  0  0  0  0  0  0  0  0  0  0
   -3.6940    3.4990   -1.4510 H   0  0  0  0  0  0  0  0  0  0  0  0
  1  4  1  0  0  0  0
  1 26  1  0  0  0  0
  1  2  1  0  0  0  0
  1  3  1  0  0  0  0
  2  5  1  0  0  0  0
  2  6  1  0  0  0  0
  2 27  1  0  0  0  0
  3  7  1  0  0  0  0
  3  8  1  0  0  0  0
  3  9  1  0  0  0  0
  4 29  1  0  0  0  0
  4 10  1  0  0  0  0
  4 11  1  0  0  0  0
  5 12  1  0  0  0  0
  5 28  1  0  0  0  0
  5 13  1  0  0  0  0
  6 31  1  0  0  0  0
  6 30  1  0  0  0  0
  6 14  1  0  0  0  0
  7 15  2  0  0  0  0
  7 14  1  0  0  0  0
  8 16  1  0  0  0  0
  8 32  1  0  0  0  0
  8 33  1  0  0  0  0
  9 35  1  0  0  0  0
  9 34  1  0  0  0  0
  9 36  1  0  0  0  0
 10 37  1  0  0  0  0
 10 12  1  0  0  0  0
 10 38  1  0  0  0  0
 11 39  1  0  0  0  0
 12 17  1  0  0  0  0
 12 18  1  0  0  0  0
 13 41  1  0  0  0  0
 13 19  1  0  0  0  0
 13 40  1  0  0  0  0
 14 42  1  0  0  0  0
 14 20  1  0  0  0  0
 15 43  1  0  0  0  0
 15 21  1  0  0  0  0
 16 45  1  0  0  0  0
 16 21  1  0  0  0  0
 16 44  1  0  0  0  0
 17 46  1  0  0  0  0
 17 19  1  0  0  0  0
 17 22  1  0  0  0  0
 18 49  1  0  0  0  0
 18 47  1  0  0  0  0
 18 48  1  0  0  0  0
 19 51  1  0  0  0  0
 19 50  1  0  0  0  0
 20 54  1  0  0  0  0
 20 52  1  0  0  0  0
 20 53  1  0  0  0  0
 21 23  2  0  0  0  0
 22 24  1  0  0  0  0
 22 25  2  0  0  0  0
 24 55  1  0  0  0  0
 24 56  1  0  0  0  0
 24 57  1  0  0  0  0
M  END
