decoy-316
 OpenBabel06062114513D

 46 47  0  0  0  0  0  0  0  0999 V2000
   -0.0030    1.5500   -0.1210 C   0  0  0  0  0  0  0  0  0  0  0  0
    0.0340    0.0550   -0.1650 C   0  0  0  0  0  0  0  0  0  0  0  0
    1.1350    2.3300    0.2230 C   0  0  0  0  0  0  0  0  0  0  0  0
   -1.2130    2.2290   -0.4160 C   0  0  0  0  0  0  0  0  0  0  0  0
   -0.9700   -0.4790    0.7940 C   0  0  0  0  0  0  0  0  0  0  0  0
   -0.1660   -0.4120   -1.5560 C   0  0  0  0  0  0  0  0  0  0  0  0
    1.0470    3.7360    0.2840 C   0  0  0  0  0  0  0  0  0  0  0  0
    2.3450    1.7800    0.5020 O   0  0  0  0  0  0  0  0  0  0  0  0
   -1.2940    3.6320   -0.3610 C   0  0  0  0  0  0  0  0  0  0  0  0
   -0.8320   -1.9010    1.1890 C   0  0  0  0  0  0  0  0  0  0  0  0
    0.7550   -0.1240   -2.5040 O   0  0  0  0  0  0  0  0  0  0  0  0
   -1.2920   -1.0540   -1.9410 O   0  0  0  0  0  0  0  0  0  0  0  0
   -0.1640    4.3860   -0.0080 C   0  0  0  0  0  0  0  0  0  0  0  0
   -1.9700   -2.2960    2.1530 C   0  0  0  0  0  0  0  0  0  0  0  0
   -1.8320   -3.7180    2.5470 C   0  0  0  0  0  0  0  0  0  0  0  0
   -2.8360   -4.2510    3.5070 C   0  0  0  0  0  0  0  0  0  0  0  0
   -2.8000   -5.7470    3.4630 C   0  0  0  0  0  0  0  0  0  0  0  0
   -2.6360   -3.7840    4.8980 C   0  0  0  0  0  0  0  0  0  0  0  0
   -3.9380   -6.5270    3.1190 C   0  0  0  0  0  0  0  0  0  0  0  0
   -1.5890   -6.4260    3.7580 C   0  0  0  0  0  0  0  0  0  0  0  0
   -3.5570   -4.0730    5.8460 O   0  0  0  0  0  0  0  0  0  0  0  0
   -1.5090   -3.1430    5.2830 O   0  0  0  0  0  0  0  0  0  0  0  0
   -3.8490   -7.9320    3.0580 C   0  0  0  0  0  0  0  0  0  0  0  0
   -5.1470   -5.9760    2.8400 O   0  0  0  0  0  0  0  0  0  0  0  0
   -1.5080   -7.8280    3.7030 C   0  0  0  0  0  0  0  0  0  0  0  0
   -2.6390   -8.5820    3.3500 C   0  0  0  0  0  0  0  0  0  0  0  0
    1.0130   -0.3120    0.1520 H   0  0  0  0  0  0  0  0  0  0  0  0
   -2.0520    1.7010   -0.6710 H   0  0  0  0  0  0  0  0  0  0  0  0
   -0.9120    0.0790    1.6490 H   0  0  0  0  0  0  0  0  0  0  0  0
    1.8680    4.2910    0.5350 H   0  0  0  0  0  0  0  0  0  0  0  0
    2.4540    1.0460   -0.1380 H   0  0  0  0  0  0  0  0  0  0  0  0
   -2.1760    4.1030   -0.5760 H   0  0  0  0  0  0  0  0  0  0  0  0
   -0.8720   -2.5430    0.3060 H   0  0  0  0  0  0  0  0  0  0  0  0
    0.1290   -2.0490    1.6880 H   0  0  0  0  0  0  0  0  0  0  0  0
   -0.2210    5.4060    0.0340 H   0  0  0  0  0  0  0  0  0  0  0  0
   -1.9300   -1.6540    3.0360 H   0  0  0  0  0  0  0  0  0  0  0  0
   -2.9310   -2.1470    1.6540 H   0  0  0  0  0  0  0  0  0  0  0  0
   -1.8900   -4.2760    1.6930 H   0  0  0  0  0  0  0  0  0  0  0  0
   -3.8150   -3.8840    3.1900 H   0  0  0  0  0  0  0  0  0  0  0  0
   -0.7510   -5.8980    4.0130 H   0  0  0  0  0  0  0  0  0  0  0  0
   -4.6710   -8.4880    2.8070 H   0  0  0  0  0  0  0  0  0  0  0  0
   -5.2560   -5.2430    3.4800 H   0  0  0  0  0  0  0  0  0  0  0  0
   -0.6260   -8.3000    3.9170 H   0  0  0  0  0  0  0  0  0  0  0  0
   -2.5820   -9.6020    3.3080 H   0  0  0  0  0  0  0  0  0  0  0  0
   -1.9010   -0.3450    0.3930 H   0  0  0  0  0  0  0  0  0  0  0  0
   -0.9010   -3.8520    2.9490 H   0  0  0  0  0  0  0  0  0  0  0  0
  1  3  2  0  0  0  0
  1  2  1  0  0  0  0
  1  4  1  0  0  0  0
  2 27  1  0  0  0  0
  2  5  1  0  0  0  0
  2  6  1  0  0  0  0
  3  7  1  0  0  0  0
  3  8  1  0  0  0  0
  4  9  2  0  0  0  0
  4 28  1  0  0  0  0
  5 10  1  0  0  0  0
  5 29  1  0  0  0  0
  5 45  1  0  0  0  0
  6 11  2  0  0  0  0
  6 12  1  0  0  0  0
  7 30  1  0  0  0  0
  7 13  2  0  0  0  0
  8 31  1  0  0  0  0
  9 13  1  0  0  0  0
  9 32  1  0  0  0  0
 10 34  1  0  0  0  0
 10 14  1  0  0  0  0
 10 33  1  0  0  0  0
 13 35  1  0  0  0  0
 14 15  1  0  0  0  0
 14 36  1  0  0  0  0
 14 37  1  0  0  0  0
 15 46  1  0  0  0  0
 15 16  1  0  0  0  0
 15 38  1  0  0  0  0
 16 39  1  0  0  0  0
 16 18  1  0  0  0  0
 16 17  1  0  0  0  0
 17 20  2  0  0  0  0
 17 19  1  0  0  0  0
 18 22  2  0  0  0  0
 18 21  1  0  0  0  0
 19 23  2  0  0  0  0
 19 24  1  0  0  0  0
 20 40  1  0  0  0  0
 20 25  1  0  0  0  0
 23 26  1  0  0  0  0
 23 41  1  0  0  0  0
 24 42  1  0  0  0  0
 25 43  1  0  0  0  0
 25 26  2  0  0  0  0
 26 44  1  0  0  0  0
M  END
