decoy-189
 OpenBabel06062114503D

 18 18  0  0  0  0  0  0  0  0999 V2000
   -0.0380    1.3880    0.0030 C   0  0  0  0  0  0  0  0  0  0  0  0
   -0.0030   -0.0340    0.0050 C   0  0  0  0  0  0  0  0  0  0  0  0
    1.1920    2.1030    0.0060 C   0  0  0  0  0  0  0  0  0  0  0  0
   -1.3440    2.1180    0.0280 C   0  0  0  0  0  0  0  0  0  0  0  0
    1.2330   -0.7210   -0.0290 C   0  0  0  0  0  0  0  0  0  0  0  0
   -1.5770   -1.0450    0.0830 Br  0  0  0  0  0  0  0  0  0  0  0  0
    2.4240    1.4110   -0.0290 C   0  0  0  0  0  0  0  0  0  0  0  0
    1.2280    3.9740    0.0850 Br  0  0  0  0  0  0  0  0  0  0  0  0
   -1.8310    2.3900    1.4690 C   0  0  0  0  0  0  0  0  0  0  0  0
    2.4440    0.0010   -0.0530 C   0  0  0  0  0  0  0  0  0  0  0  0
    1.2750   -2.5900   -0.0400 Br  0  0  0  0  0  0  0  0  0  0  0  0
    4.0380    2.3550   -0.0380 Br  0  0  0  0  0  0  0  0  0  0  0  0
    4.0750   -0.9100   -0.1020 Br  0  0  0  0  0  0  0  0  0  0  0  0
   -1.2710    3.0670   -0.5050 H   0  0  0  0  0  0  0  0  0  0  0  0
   -2.1140    1.5590   -0.5060 H   0  0  0  0  0  0  0  0  0  0  0  0
   -2.7840    2.9220    1.4420 H   0  0  0  0  0  0  0  0  0  0  0  0
   -1.9730    1.4520    2.0090 H   0  0  0  0  0  0  0  0  0  0  0  0
   -1.1070    3.0020    2.0090 H   0  0  0  0  0  0  0  0  0  0  0  0
  1  2  2  0  0  0  0
  1  3  1  0  0  0  0
  1  4  1  0  0  0  0
  2  6  1  0  0  0  0
  2  5  1  0  0  0  0
  3  8  1  0  0  0  0
  3  7  2  0  0  0  0
  4  9  1  0  0  0  0
  4 14  1  0  0  0  0
  4 15  1  0  0  0  0
  5 10  2  0  0  0  0
  5 11  1  0  0  0  0
  7 10  1  0  0  0  0
  7 12  1  0  0  0  0
  9 17  1  0  0  0  0
  9 18  1  0  0  0  0
  9 16  1  0  0  0  0
 10 13  1  0  0  0  0
M  END
