decoy-832
 OpenBabel06062114513D

 57 60  0  0  0  0  0  0  0  0999 V2000
    1.8050    0.0910   -0.3650 C   0  0  0  0  0  0  0  0  0  0  0  0
    0.7560    0.5680    0.7250 C   0  0  0  0  0  0  0  0  0  0  0  0
    3.2580   -0.1170    0.2740 C   0  0  0  0  0  0  0  0  0  0  0  0
    1.2280   -1.0850   -1.2540 C   0  0  0  0  0  0  0  0  0  0  0  0
    1.9390    1.1400   -1.2690 F   0  0  0  0  0  0  0  0  0  0  0  0
   -0.6510    0.8080    0.0790 C   0  0  0  0  0  0  0  0  0  0  0  0
    1.2720    1.8370    1.4740 C   0  0  0  0  0  0  0  0  0  0  0  0
    3.6140    1.1440    1.0070 C   0  0  0  0  0  0  0  0  0  0  0  0
    4.2380   -0.4260   -0.7980 C   0  0  0  0  0  0  0  0  0  0  0  0
    3.3850   -1.3040    1.2980 C   0  0  0  0  0  0  0  0  0  0  0  0
   -0.2250   -0.8330   -1.7780 C   0  0  0  0  0  0  0  0  0  0  0  0
    1.2670   -2.3570   -0.6150 O   0  0  0  0  0  0  0  0  0  0  0  0
   -1.2540   -0.4330   -0.6600 C   0  0  0  0  0  0  0  0  0  0  0  0
   -1.8290    1.3040    0.9400 C   0  0  0  0  0  0  0  0  0  0  0  0
    2.7000    1.6440    2.0420 C   0  0  0  0  0  0  0  0  0  0  0  0
    4.7210    1.8540    0.6820 C   0  0  0  0  0  0  0  0  0  0  0  0
    5.3120    0.3420   -1.0500 C   0  0  0  0  0  0  0  0  0  0  0  0
   -2.6380    0.1750   -1.1590 C   0  0  0  0  0  0  0  0  0  0  0  0
   -1.4870   -1.6780    0.2910 C   0  0  0  0  0  0  0  0  0  0  0  0
   -3.0880    1.1120    0.0370 C   0  0  0  0  0  0  0  0  0  0  0  0
    5.5570    1.4600   -0.3190 C   0  0  0  0  0  0  0  0  0  0  0  0
   -3.6670   -0.7370   -1.6940 C   0  0  0  0  0  0  0  0  0  0  0  0
   -2.3910    1.0160   -2.3030 O   0  0  0  0  0  0  0  0  0  0  0  0
   -4.3280    0.7040    0.8890 C   0  0  0  0  0  0  0  0  0  0  0  0
    6.5480    2.1320   -0.5730 O   0  0  0  0  0  0  0  0  0  0  0  0
   -4.9230   -0.2730   -2.2680 C   0  0  0  0  0  0  0  0  0  0  0  0
   -3.4400   -1.9300   -1.8380 O   0  0  0  0  0  0  0  0  0  0  0  0
   -4.9850   -0.5710   -3.6600 O   0  0  0  0  0  0  0  0  0  0  0  0
    0.6530   -0.2020    1.4870 H   0  0  0  0  0  0  0  0  0  0  0  0
   -0.4780    1.6090   -0.6490 H   0  0  0  0  0  0  0  0  0  0  0  0
    1.8550   -1.1940   -2.1440 H   0  0  0  0  0  0  0  0  0  0  0  0
    1.2740    2.6960    0.7970 H   0  0  0  0  0  0  0  0  0  0  0  0
    0.6020    2.0730    2.3050 H   0  0  0  0  0  0  0  0  0  0  0  0
    4.1180   -1.2480   -1.3440 H   0  0  0  0  0  0  0  0  0  0  0  0
    2.5890   -1.2960    2.0400 H   0  0  0  0  0  0  0  0  0  0  0  0
    4.3360   -1.2450    1.8370 H   0  0  0  0  0  0  0  0  0  0  0  0
    3.3650   -2.2810    0.8150 H   0  0  0  0  0  0  0  0  0  0  0  0
   -0.1620   -0.0390   -2.5260 H   0  0  0  0  0  0  0  0  0  0  0  0
   -0.5800   -1.7210   -2.3070 H   0  0  0  0  0  0  0  0  0  0  0  0
    2.1980   -2.6490   -0.6850 H   0  0  0  0  0  0  0  0  0  0  0  0
   -1.8860    0.7110    1.8580 H   0  0  0  0  0  0  0  0  0  0  0  0
   -1.7020    2.3540    1.2190 H   0  0  0  0  0  0  0  0  0  0  0  0
    3.0250    2.5990    2.4660 H   0  0  0  0  0  0  0  0  0  0  0  0
    2.6670    0.9340    2.8710 H   0  0  0  0  0  0  0  0  0  0  0  0
    4.9330    2.6940    1.1720 H   0  0  0  0  0  0  0  0  0  0  0  0
    5.9380    0.0760   -1.7770 H   0  0  0  0  0  0  0  0  0  0  0  0
   -0.6420   -1.8820    0.9410 H   0  0  0  0  0  0  0  0  0  0  0  0
   -1.6530   -2.5890   -0.2840 H   0  0  0  0  0  0  0  0  0  0  0  0
   -2.3470   -1.5430    0.9390 H   0  0  0  0  0  0  0  0  0  0  0  0
   -3.3400    2.0960   -0.3750 H   0  0  0  0  0  0  0  0  0  0  0  0
   -1.8340    1.7570   -1.9960 H   0  0  0  0  0  0  0  0  0  0  0  0
   -4.2490   -0.3190    1.2520 H   0  0  0  0  0  0  0  0  0  0  0  0
   -5.2440    0.7920    0.3060 H   0  0  0  0  0  0  0  0  0  0  0  0
   -4.4260    1.3690    1.7500 H   0  0  0  0  0  0  0  0  0  0  0  0
   -5.7570   -0.7690   -1.7680 H   0  0  0  0  0  0  0  0  0  0  0  0
   -5.0490    0.8050   -2.1530 H   0  0  0  0  0  0  0  0  0  0  0  0
   -4.2410   -0.0730   -4.0600 H   0  0  0  0  0  0  0  0  0  0  0  0
  1  4  1  0  0  0  0
  1  2  1  0  0  0  0
  1  3  1  0  0  0  0
  1  5  1  0  0  0  0
  2  7  1  0  0  0  0
  2 29  1  0  0  0  0
  2  6  1  0  0  0  0
  3  8  1  0  0  0  0
  3 10  1  0  0  0  0
  3  9  1  0  0  0  0
  4 31  1  0  0  0  0
  4 12  1  0  0  0  0
  4 11  1  0  0  0  0
  6 13  1  0  0  0  0
  6 14  1  0  0  0  0
  6 30  1  0  0  0  0
  7 15  1  0  0  0  0
  7 33  1  0  0  0  0
  7 32  1  0  0  0  0
  8 15  1  0  0  0  0
  8 16  2  0  0  0  0
  9 17  2  0  0  0  0
  9 34  1  0  0  0  0
 10 36  1  0  0  0  0
 10 35  1  0  0  0  0
 10 37  1  0  0  0  0
 11 13  1  0  0  0  0
 11 38  1  0  0  0  0
 11 39  1  0  0  0  0
 12 40  1  0  0  0  0
 13 18  1  0  0  0  0
 13 19  1  0  0  0  0
 14 42  1  0  0  0  0
 14 41  1  0  0  0  0
 14 20  1  0  0  0  0
 15 43  1  0  0  0  0
 15 44  1  0  0  0  0
 16 45  1  0  0  0  0
 16 21  1  0  0  0  0
 17 21  1  0  0  0  0
 17 46  1  0  0  0  0
 18 20  1  0  0  0  0
 18 22  1  0  0  0  0
 18 23  1  0  0  0  0
 19 49  1  0  0  0  0
 19 47  1  0  0  0  0
 19 48  1  0  0  0  0
 20 50  1  0  0  0  0
 20 24  1  0  0  0  0
 21 25  2  0  0  0  0
 22 26  1  0  0  0  0
 22 27  2  0  0  0  0
 23 51  1  0  0  0  0
 24 52  1  0  0  0  0
 24 54  1  0  0  0  0
 24 53  1  0  0  0  0
 26 56  1  0  0  0  0
 26 55  1  0  0  0  0
 26 28  1  0  0  0  0
 28 57  1  0  0  0  0
M  END
