decoy-849
 OpenBabel06062114513D

 27 28  0  0  0  0  0  0  0  0999 V2000
    1.3860    1.2240   -0.0620 C   0  0  0  0  0  0  0  0  0  0  0  0
   -0.1070    2.1090    0.0790 S   0  0  0  0  0  0  0  0  0  0  0  0
    2.1290    1.2520   -1.2600 C   0  0  0  0  0  0  0  0  0  0  0  0
    1.8520    0.4540    1.0250 C   0  0  0  0  0  0  0  0  0  0  0  0
   -1.3670    1.1050    0.5730 N   0  0  0  0  0  0  0  0  0  0  0  0
   -0.5260    2.9330   -1.2150 O   0  0  0  0  0  0  0  0  0  0  0  0
    0.0840    3.1670    1.2510 O   0  0  0  0  0  0  0  0  0  0  0  0
    3.3270    0.5220   -1.3700 C   0  0  0  0  0  0  0  0  0  0  0  0
    3.0500   -0.2760    0.9150 C   0  0  0  0  0  0  0  0  0  0  0  0
   -1.8040    0.0530   -0.1460 C   0  0  0  0  0  0  0  0  0  0  0  0
    3.7920   -0.2450   -0.2830 C   0  0  0  0  0  0  0  0  0  0  0  0
   -3.0890   -0.9500    0.4210 S   0  0  0  0  0  0  0  0  0  0  0  0
   -1.3260   -0.3430   -1.3340 N   0  0  0  0  0  0  0  0  0  0  0  0
    4.9360   -0.9430   -0.3880 N   0  0  0  0  0  0  0  0  0  0  0  0
   -2.8410   -1.8150   -1.0280 C   0  0  0  0  0  0  0  0  0  0  0  0
   -1.9130   -1.3590   -1.7810 N   0  0  0  0  0  0  0  0  0  0  0  0
   -3.6310   -2.9730   -1.3660 C   0  0  0  0  0  0  0  0  0  0  0  0
    1.8040    1.8010   -2.0590 H   0  0  0  0  0  0  0  0  0  0  0  0
    1.3230    0.4200    1.8990 H   0  0  0  0  0  0  0  0  0  0  0  0
   -1.7930    1.2900    1.4250 H   0  0  0  0  0  0  0  0  0  0  0  0
    3.8560    0.5510   -2.2450 H   0  0  0  0  0  0  0  0  0  0  0  0
    3.3760   -0.8300    1.7110 H   0  0  0  0  0  0  0  0  0  0  0  0
    5.2550   -1.4710    0.3610 H   0  0  0  0  0  0  0  0  0  0  0  0
    5.4460   -0.9210   -1.2130 H   0  0  0  0  0  0  0  0  0  0  0  0
   -3.5070   -3.7380   -0.5980 H   0  0  0  0  0  0  0  0  0  0  0  0
   -3.3280   -3.3940   -2.3280 H   0  0  0  0  0  0  0  0  0  0  0  0
   -4.6840   -2.6950   -1.4260 H   0  0  0  0  0  0  0  0  0  0  0  0
  1  2  1  0  0  0  0
  1  4  2  0  0  0  0
  1  3  1  0  0  0  0
  2  5  1  0  0  0  0
  2  7  2  0  0  0  0
  2  6  2  0  0  0  0
  3  8  2  0  0  0  0
  3 18  1  0  0  0  0
  4 19  1  0  0  0  0
  4  9  1  0  0  0  0
  5 20  1  0  0  0  0
  5 10  1  0  0  0  0
  8 11  1  0  0  0  0
  8 21  1  0  0  0  0
  9 22  1  0  0  0  0
  9 11  2  0  0  0  0
 10 12  1  0  0  0  0
 10 13  2  0  0  0  0
 11 14  1  0  0  0  0
 12 15  1  0  0  0  0
 13 16  1  0  0  0  0
 14 23  1  0  0  0  0
 14 24  1  0  0  0  0
 15 16  2  0  0  0  0
 15 17  1  0  0  0  0
 17 25  1  0  0  0  0
 17 26  1  0  0  0  0
 17 27  1  0  0  0  0
M  END
