decoy-15
 OpenBabel06062114503D

 57 61  0  0  0  0  0  0  0  0999 V2000
   -0.0960    1.2360    0.0100 C   0  0  0  0  0  0  0  0  0  0  0  0
   -0.1140   -0.1690    0.0030 C   0  0  0  0  0  0  0  0  0  0  0  0
    1.0190    1.9950    0.0030 N   0  0  0  0  0  0  0  0  0  0  0  0
   -1.2050    2.0200    0.0240 O   0  0  0  0  0  0  0  0  0  0  0  0
    1.3310   -1.1320   -0.0150 S   0  0  0  0  0  0  0  0  0  0  0  0
   -1.2790   -0.9320    0.0100 C   0  0  0  0  0  0  0  0  0  0  0  0
    0.6200    3.2740    0.0130 C   0  0  0  0  0  0  0  0  0  0  0  0
   -0.7670    3.2950    0.0270 C   0  0  0  0  0  0  0  0  0  0  0  0
    0.3500   -2.5650   -0.0140 C   0  0  0  0  0  0  0  0  0  0  0  0
   -1.0150   -2.2930    0.0010 C   0  0  0  0  0  0  0  0  0  0  0  0
    1.3600    4.4670    0.0120 C   0  0  0  0  0  0  0  0  0  0  0  0
   -1.4650    4.5070    0.0390 C   0  0  0  0  0  0  0  0  0  0  0  0
    0.8930   -3.8610   -0.0260 C   0  0  0  0  0  0  0  0  0  0  0  0
    0.6990    5.7310    0.0240 C   0  0  0  0  0  0  0  0  0  0  0  0
   -0.7300    5.7110    0.0380 C   0  0  0  0  0  0  0  0  0  0  0  0
    2.2110   -4.1480   -0.0400 N   0  0  0  0  0  0  0  0  0  0  0  0
    0.1580   -5.0030   -0.0260 O   0  0  0  0  0  0  0  0  0  0  0  0
    1.5190    7.0140    0.0230 C   0  0  0  0  0  0  0  0  0  0  0  0
    2.3190   -5.4830   -0.0480 C   0  0  0  0  0  0  0  0  0  0  0  0
    1.0410   -6.0210   -0.0400 C   0  0  0  0  0  0  0  0  0  0  0  0
    0.6690    8.3330    0.0380 C   0  0  0  0  0  0  0  0  0  0  0  0
    2.4330    7.0550    1.2940 C   0  0  0  0  0  0  0  0  0  0  0  0
    2.4080    7.0670   -1.2650 C   0  0  0  0  0  0  0  0  0  0  0  0
    3.4510   -6.3130   -0.0640 C   0  0  0  0  0  0  0  0  0  0  0  0
    0.8470   -7.4070   -0.0460 C   0  0  0  0  0  0  0  0  0  0  0  0
    3.3110   -7.7320   -0.0700 C   0  0  0  0  0  0  0  0  0  0  0  0
    1.9790   -8.2480   -0.0610 C   0  0  0  0  0  0  0  0  0  0  0  0
    4.5520   -8.6150   -0.0870 C   0  0  0  0  0  0  0  0  0  0  0  0
    4.2570  -10.1570   -0.0930 C   0  0  0  0  0  0  0  0  0  0  0  0
    5.3940   -8.3150   -1.3720 C   0  0  0  0  0  0  0  0  0  0  0  0
    5.4180   -8.3290    1.1870 C   0  0  0  0  0  0  0  0  0  0  0  0
   -2.2250   -0.5450    0.0210 H   0  0  0  0  0  0  0  0  0  0  0  0
   -1.7480   -3.0060    0.0040 H   0  0  0  0  0  0  0  0  0  0  0  0
    2.3780    4.3980    0.0020 H   0  0  0  0  0  0  0  0  0  0  0  0
   -2.4870    4.5150    0.0490 H   0  0  0  0  0  0  0  0  0  0  0  0
   -1.2700    6.5750    0.0480 H   0  0  0  0  0  0  0  0  0  0  0  0
    1.3090    9.2190    0.0360 H   0  0  0  0  0  0  0  0  0  0  0  0
    0.0250    8.3920   -0.8430 H   0  0  0  0  0  0  0  0  0  0  0  0
    0.0420    8.3830    0.9310 H   0  0  0  0  0  0  0  0  0  0  0  0
    3.1490    6.2320    1.3040 H   0  0  0  0  0  0  0  0  0  0  0  0
    3.0070    7.9840    1.3350 H   0  0  0  0  0  0  0  0  0  0  0  0
    1.8280    6.9890    2.2010 H   0  0  0  0  0  0  0  0  0  0  0  0
    1.7860    7.0100   -2.1610 H   0  0  0  0  0  0  0  0  0  0  0  0
    2.9820    7.9970   -1.3080 H   0  0  0  0  0  0  0  0  0  0  0  0
    3.1240    6.2450   -1.2970 H   0  0  0  0  0  0  0  0  0  0  0  0
    4.3700   -5.8680   -0.0700 H   0  0  0  0  0  0  0  0  0  0  0  0
   -0.0980   -7.7960   -0.0390 H   0  0  0  0  0  0  0  0  0  0  0  0
    1.8020   -9.2520   -0.0650 H   0  0  0  0  0  0  0  0  0  0  0  0
    5.1820  -10.7380   -0.1040 H   0  0  0  0  0  0  0  0  0  0  0  0
    3.6970  -10.4500    0.7980 H   0  0  0  0  0  0  0  0  0  0  0  0
    3.6800  -10.4400   -0.9760 H   0  0  0  0  0  0  0  0  0  0  0  0
    5.7500   -7.2840   -1.3910 H   0  0  0  0  0  0  0  0  0  0  0  0
    6.2730   -8.9610   -1.4260 H   0  0  0  0  0  0  0  0  0  0  0  0
    4.7940   -8.4820   -2.2700 H   0  0  0  0  0  0  0  0  0  0  0  0
    4.8340   -8.5060    2.0930 H   0  0  0  0  0  0  0  0  0  0  0  0
    6.2980   -8.9760    1.2170 H   0  0  0  0  0  0  0  0  0  0  0  0
    5.7740   -7.2980    1.2100 H   0  0  0  0  0  0  0  0  0  0  0  0
  1  4  1  0  0  0  0
  1  2  1  0  0  0  0
  1  3  2  0  0  0  0
  2  6  2  0  0  0  0
  2  5  1  0  0  0  0
  3  7  1  0  0  0  0
  4  8  1  0  0  0  0
  5  9  1  0  0  0  0
  6 32  1  0  0  0  0
  6 10  1  0  0  0  0
  7  8  2  0  0  0  0
  7 11  1  0  0  0  0
  8 12  1  0  0  0  0
  9 10  2  0  0  0  0
  9 13  1  0  0  0  0
 10 33  1  0  0  0  0
 11 14  2  0  0  0  0
 11 34  1  0  0  0  0
 12 35  1  0  0  0  0
 12 15  2  0  0  0  0
 13 16  2  0  0  0  0
 13 17  1  0  0  0  0
 14 15  1  0  0  0  0
 14 18  1  0  0  0  0
 15 36  1  0  0  0  0
 16 19  1  0  0  0  0
 17 20  1  0  0  0  0
 18 21  1  0  0  0  0
 18 22  1  0  0  0  0
 18 23  1  0  0  0  0
 19 20  2  0  0  0  0
 19 24  1  0  0  0  0
 20 25  1  0  0  0  0
 21 39  1  0  0  0  0
 21 37  1  0  0  0  0
 21 38  1  0  0  0  0
 22 40  1  0  0  0  0
 22 41  1  0  0  0  0
 22 42  1  0  0  0  0
 23 43  1  0  0  0  0
 23 44  1  0  0  0  0
 23 45  1  0  0  0  0
 24 26  2  0  0  0  0
 24 46  1  0  0  0  0
 25 47  1  0  0  0  0
 25 27  2  0  0  0  0
 26 27  1  0  0  0  0
 26 28  1  0  0  0  0
 27 48  1  0  0  0  0
 28 31  1  0  0  0  0
 28 29  1  0  0  0  0
 28 30  1  0  0  0  0
 29 50  1  0  0  0  0
 29 49  1  0  0  0  0
 29 51  1  0  0  0  0
 30 52  1  0  0  0  0
 30 53  1  0  0  0  0
 30 54  1  0  0  0  0
 31 57  1  0  0  0  0
 31 56  1  0  0  0  0
 31 55  1  0  0  0  0
M  END
