decoy-460
 OpenBabel06062114513D

 30 30  0  0  0  0  0  0  0  0999 V2000
    2.3810    0.3560    0.4570 C   0  0  0  0  0  0  0  0  0  0  0  0
    2.9660   -0.5570    1.4030 C   0  0  0  0  0  0  0  0  0  0  0  0
    0.9860    0.2610    0.1880 C   0  0  0  0  0  0  0  0  0  0  0  0
    3.1630    1.4100   -0.2750 C   0  0  0  0  0  0  0  0  0  0  0  0
    2.1050   -1.5160    2.0070 C   0  0  0  0  0  0  0  0  0  0  0  0
    4.2920   -0.5840    1.7690 N   0  0  0  0  0  0  0  0  0  0  0  0
    0.1470   -0.6810    0.8210 C   0  0  0  0  0  0  0  0  0  0  0  0
    2.4520    2.1980   -1.1530 F   0  0  0  0  0  0  0  0  0  0  0  0
    4.1390    0.8300   -1.0480 F   0  0  0  0  0  0  0  0  0  0  0  0
    3.7130    2.3000    0.6140 F   0  0  0  0  0  0  0  0  0  0  0  0
    0.7350   -1.5830    1.7200 C   0  0  0  0  0  0  0  0  0  0  0  0
    4.7390   -1.3700    2.5650 O   0  0  0  0  0  0  0  0  0  0  0  0
    5.2130    0.2150    1.3180 O   0  0  0  0  0  0  0  0  0  0  0  0
   -1.1950   -0.8300    0.5940 N   0  0  0  0  0  0  0  0  0  0  0  0
   -2.0990    0.0480    0.1710 C   0  0  0  0  0  0  0  0  0  0  0  0
   -3.4890   -0.3750    0.0090 C   0  0  0  0  0  0  0  0  0  0  0  0
   -1.8200    1.2240   -0.0300 O   0  0  0  0  0  0  0  0  0  0  0  0
   -4.4270    0.3640    1.0030 C   0  0  0  0  0  0  0  0  0  0  0  0
   -3.9630   -0.1990   -1.4590 C   0  0  0  0  0  0  0  0  0  0  0  0
    0.5660    0.8710   -0.5100 H   0  0  0  0  0  0  0  0  0  0  0  0
    2.4670   -2.1960    2.6800 H   0  0  0  0  0  0  0  0  0  0  0  0
    0.1640   -2.2940    2.1860 H   0  0  0  0  0  0  0  0  0  0  0  0
   -1.5520   -1.7010    0.8300 H   0  0  0  0  0  0  0  0  0  0  0  0
   -3.5720   -1.4440    0.2370 H   0  0  0  0  0  0  0  0  0  0  0  0
   -4.0930    0.2030    2.0300 H   0  0  0  0  0  0  0  0  0  0  0  0
   -5.4460   -0.0170    0.9130 H   0  0  0  0  0  0  0  0  0  0  0  0
   -4.4400    1.4380    0.8040 H   0  0  0  0  0  0  0  0  0  0  0  0
   -3.9570    0.8540   -1.7490 H   0  0  0  0  0  0  0  0  0  0  0  0
   -4.9780   -0.5840   -1.5770 H   0  0  0  0  0  0  0  0  0  0  0  0
   -3.3090   -0.7520   -2.1380 H   0  0  0  0  0  0  0  0  0  0  0  0
  1  2  2  0  0  0  0
  1  3  1  0  0  0  0
  1  4  1  0  0  0  0
  2  6  1  0  0  0  0
  2  5  1  0  0  0  0
  3  7  2  0  0  0  0
  3 20  1  0  0  0  0
  4 10  1  0  0  0  0
  4  8  1  0  0  0  0
  4  9  1  0  0  0  0
  5 21  1  0  0  0  0
  5 11  2  0  0  0  0
  6 12  2  0  0  0  0
  6 13  1  0  0  0  0
  7 11  1  0  0  0  0
  7 14  1  0  0  0  0
 11 22  1  0  0  0  0
 14 23  1  0  0  0  0
 14 15  1  0  0  0  0
 15 16  1  0  0  0  0
 15 17  2  0  0  0  0
 16 24  1  0  0  0  0
 16 18  1  0  0  0  0
 16 19  1  0  0  0  0
 18 25  1  0  0  0  0
 18 26  1  0  0  0  0
 18 27  1  0  0  0  0
 19 28  1  0  0  0  0
 19 29  1  0  0  0  0
 19 30  1  0  0  0  0
M  END
