decoy-369
 OpenBabel06062114513D

 41 42  0  0  0  0  0  0  0  0999 V2000
    1.2400    1.2500    0.8500 C   0  0  0  0  0  0  0  0  0  0  0  0
    0.3600    0.8900   -0.2070 C   0  0  0  0  0  0  0  0  0  0  0  0
    1.2960    0.4630    2.1160 C   0  0  0  0  0  0  0  0  0  0  0  0
    2.0750    2.3810    0.6810 C   0  0  0  0  0  0  0  0  0  0  0  0
    0.3650    1.6240   -1.4130 C   0  0  0  0  0  0  0  0  0  0  0  0
   -0.4500   -0.2110   -0.1110 O   0  0  0  0  0  0  0  0  0  0  0  0
    1.7820   -0.9280    1.9080 C   0  0  0  0  0  0  0  0  0  0  0  0
    2.0570    3.1220   -0.5140 C   0  0  0  0  0  0  0  0  0  0  0  0
    1.2050    2.7410   -1.5640 C   0  0  0  0  0  0  0  0  0  0  0  0
   -1.8140    0.0900    0.2450 C   0  0  0  0  0  0  0  0  0  0  0  0
    3.0930   -1.1630    1.4260 C   0  0  0  0  0  0  0  0  0  0  0  0
    0.9580   -2.0430    2.1970 C   0  0  0  0  0  0  0  0  0  0  0  0
   -2.6160   -1.2310    0.3290 C   0  0  0  0  0  0  0  0  0  0  0  0
    3.5610   -2.4740    1.2230 C   0  0  0  0  0  0  0  0  0  0  0  0
    1.4260   -3.3540    1.9930 C   0  0  0  0  0  0  0  0  0  0  0  0
   -4.0950   -1.0440    0.4930 *   0  0  0  0  0  0  0  0  0  0  0  0
    2.7260   -3.5700    1.5040 C   0  0  0  0  0  0  0  0  0  0  0  0
   -4.8510   -2.2980    0.2000 C   0  0  0  0  0  0  0  0  0  0  0  0
   -4.4910   -0.4740    1.8160 C   0  0  0  0  0  0  0  0  0  0  0  0
    1.9580    0.9350    2.8470 H   0  0  0  0  0  0  0  0  0  0  0  0
    0.2990    0.4700    2.5630 H   0  0  0  0  0  0  0  0  0  0  0  0
    2.7140    2.6710    1.4250 H   0  0  0  0  0  0  0  0  0  0  0  0
   -0.2460    1.3470   -2.1840 H   0  0  0  0  0  0  0  0  0  0  0  0
    2.6690    3.9340   -0.6230 H   0  0  0  0  0  0  0  0  0  0  0  0
    1.1980    3.2730   -2.4370 H   0  0  0  0  0  0  0  0  0  0  0  0
   -1.8430    0.5990    1.2110 H   0  0  0  0  0  0  0  0  0  0  0  0
   -2.2750    0.7330   -0.5110 H   0  0  0  0  0  0  0  0  0  0  0  0
    3.7140   -0.3770    1.2180 H   0  0  0  0  0  0  0  0  0  0  0  0
    0.0110   -1.9080    2.5560 H   0  0  0  0  0  0  0  0  0  0  0  0
   -2.4240   -1.7680   -0.6060 H   0  0  0  0  0  0  0  0  0  0  0  0
   -2.2180   -1.8430    1.1440 H   0  0  0  0  0  0  0  0  0  0  0  0
    4.5080   -2.6310    0.8710 H   0  0  0  0  0  0  0  0  0  0  0  0
    0.8200   -4.1510    2.2010 H   0  0  0  0  0  0  0  0  0  0  0  0
   -4.3840   -0.3650   -0.2150 H   0  0  0  0  0  0  0  0  0  0  0  0
    3.0660   -4.5230    1.3570 H   0  0  0  0  0  0  0  0  0  0  0  0
   -4.6340   -2.6480   -0.8110 H   0  0  0  0  0  0  0  0  0  0  0  0
   -5.9280   -2.1200    0.2530 H   0  0  0  0  0  0  0  0  0  0  0  0
   -4.5930   -3.0900    0.9080 H   0  0  0  0  0  0  0  0  0  0  0  0
   -4.1600   -1.1140    2.6380 H   0  0  0  0  0  0  0  0  0  0  0  0
   -5.5750   -0.3610    1.8790 H   0  0  0  0  0  0  0  0  0  0  0  0
   -4.0630    0.5190    1.9520 H   0  0  0  0  0  0  0  0  0  0  0  0
  1  3  1  0  0  0  0
  1  2  2  0  0  0  0
  1  4  1  0  0  0  0
  2  6  1  0  0  0  0
  2  5  1  0  0  0  0
  3 21  1  0  0  0  0
  3 20  1  0  0  0  0
  3  7  1  0  0  0  0
  4 22  1  0  0  0  0
  4  8  2  0  0  0  0
  5  9  2  0  0  0  0
  5 23  1  0  0  0  0
  6 10  1  0  0  0  0
  7 12  2  0  0  0  0
  7 11  1  0  0  0  0
  8  9  1  0  0  0  0
  8 24  1  0  0  0  0
  9 25  1  0  0  0  0
 10 13  1  0  0  0  0
 10 26  1  0  0  0  0
 10 27  1  0  0  0  0
 11 14  2  0  0  0  0
 11 28  1  0  0  0  0
 12 29  1  0  0  0  0
 12 15  1  0  0  0  0
 13 16  1  0  0  0  0
 13 31  1  0  0  0  0
 13 30  1  0  0  0  0
 14 17  1  0  0  0  0
 14 32  1  0  0  0  0
 15 33  1  0  0  0  0
 15 17  2  0  0  0  0
 16 19  1  0  0  0  0
 16 18  1  0  0  0  0
 16 34  1  0  0  0  0
 17 35  1  0  0  0  0
 18 37  1  0  0  0  0
 18 38  1  0  0  0  0
 18 36  1  0  0  0  0
 19 40  1  0  0  0  0
 19 41  1  0  0  0  0
 19 39  1  0  0  0  0
M  END
