decoy-190
 OpenBabel06062114503D

 55 57  0  0  0  0  0  0  0  0999 V2000
   -0.4300    2.0960    0.3510 P   0  0  0  0  0  0  0  0  0  0  0  0
   -1.2870    1.0100   -0.3590 O   0  0  0  0  0  0  0  0  0  0  0  0
    0.7450    1.1180    0.6340 O   0  0  0  0  0  0  0  0  0  0  0  0
    0.1950    2.6130   -0.9760 O   0  0  0  0  0  0  0  0  0  0  0  0
   -2.3580    0.4210    0.4150 C   0  0  0  0  0  0  0  0  0  0  0  0
    1.7330    1.5560    1.5940 C   0  0  0  0  0  0  0  0  0  0  0  0
   -0.3890    3.8090   -1.5410 C   0  0  0  0  0  0  0  0  0  0  0  0
   -3.3120   -0.2820   -0.5930 C   0  0  0  0  0  0  0  0  0  0  0  0
   -1.8730   -0.6080    1.4830 C   0  0  0  0  0  0  0  0  0  0  0  0
    2.5190    0.2840    2.0220 C   0  0  0  0  0  0  0  0  0  0  0  0
    2.7100    2.6270    1.0160 C   0  0  0  0  0  0  0  0  0  0  0  0
    0.6420    4.3550   -2.5690 C   0  0  0  0  0  0  0  0  0  0  0  0
   -1.7610    3.5470   -2.2380 C   0  0  0  0  0  0  0  0  0  0  0  0
   -2.6590   -1.5270   -1.2530 C   0  0  0  0  0  0  0  0  0  0  0  0
   -1.1990   -1.8460    0.8370 C   0  0  0  0  0  0  0  0  0  0  0  0
    3.6730    0.6080    3.0060 C   0  0  0  0  0  0  0  0  0  0  0  0
    3.8690    2.9540    1.9940 C   0  0  0  0  0  0  0  0  0  0  0  0
    0.1230    5.6100   -3.3170 C   0  0  0  0  0  0  0  0  0  0  0  0
   -2.2860    4.7970   -2.9910 C   0  0  0  0  0  0  0  0  0  0  0  0
   -2.1360   -2.5300   -0.1930 C   0  0  0  0  0  0  0  0  0  0  0  0
    4.6330    1.6770    2.4260 C   0  0  0  0  0  0  0  0  0  0  0  0
   -1.2420    5.3410   -4.0000 C   0  0  0  0  0  0  0  0  0  0  0  0
   -2.9440    1.2030    0.9150 H   0  0  0  0  0  0  0  0  0  0  0  0
    1.2490    1.9570    2.4940 H   0  0  0  0  0  0  0  0  0  0  0  0
   -0.5170    4.5790   -0.7700 H   0  0  0  0  0  0  0  0  0  0  0  0
   -4.2240   -0.5920   -0.0740 H   0  0  0  0  0  0  0  0  0  0  0  0
   -3.6050    0.4260   -1.3740 H   0  0  0  0  0  0  0  0  0  0  0  0
   -1.1710   -0.1320    2.1720 H   0  0  0  0  0  0  0  0  0  0  0  0
   -2.7300   -0.9390    2.0770 H   0  0  0  0  0  0  0  0  0  0  0  0
    1.8330   -0.4200    2.5000 H   0  0  0  0  0  0  0  0  0  0  0  0
    2.9340   -0.2050    1.1350 H   0  0  0  0  0  0  0  0  0  0  0  0
    3.1250    2.2670    0.0710 H   0  0  0  0  0  0  0  0  0  0  0  0
    2.1620    3.5500    0.8100 H   0  0  0  0  0  0  0  0  0  0  0  0
    1.5690    4.6120   -2.0490 H   0  0  0  0  0  0  0  0  0  0  0  0
    0.8770    3.5750   -3.3010 H   0  0  0  0  0  0  0  0  0  0  0  0
   -1.6570    2.7170   -2.9420 H   0  0  0  0  0  0  0  0  0  0  0  0
   -2.5040    3.2600   -1.4900 H   0  0  0  0  0  0  0  0  0  0  0  0
   -3.3950   -2.0260   -1.8890 H   0  0  0  0  0  0  0  0  0  0  0  0
   -1.8300   -1.2080   -1.8900 H   0  0  0  0  0  0  0  0  0  0  0  0
   -0.2740   -1.5420    0.3390 H   0  0  0  0  0  0  0  0  0  0  0  0
   -0.9370   -2.5640    1.6180 H   0  0  0  0  0  0  0  0  0  0  0  0
    3.2540    0.9700    3.9500 H   0  0  0  0  0  0  0  0  0  0  0  0
    4.2350   -0.3060    3.2180 H   0  0  0  0  0  0  0  0  0  0  0  0
    4.5650    3.6450    1.5110 H   0  0  0  0  0  0  0  0  0  0  0  0
    3.4640    3.4510    2.8800 H   0  0  0  0  0  0  0  0  0  0  0  0
    0.0170    6.4370   -2.6080 H   0  0  0  0  0  0  0  0  0  0  0  0
    0.8530    5.9090   -4.0740 H   0  0  0  0  0  0  0  0  0  0  0  0
   -3.2030    4.5380   -3.5260 H   0  0  0  0  0  0  0  0  0  0  0  0
   -2.5300    5.5790   -2.2670 H   0  0  0  0  0  0  0  0  0  0  0  0
   -2.9860   -2.9740    0.3330 H   0  0  0  0  0  0  0  0  0  0  0  0
   -1.5940   -3.3360   -0.6950 H   0  0  0  0  0  0  0  0  0  0  0  0
    5.3800    1.9410    3.1810 H   0  0  0  0  0  0  0  0  0  0  0  0
    5.1610    1.2610    1.5630 H   0  0  0  0  0  0  0  0  0  0  0  0
   -1.6150    6.2690   -4.4410 H   0  0  0  0  0  0  0  0  0  0  0  0
   -1.1070    4.6170   -4.8080 H   0  0  0  0  0  0  0  0  0  0  0  0
  1  3  1  0  0  0  0
  1  2  1  0  0  0  0
  1  4  1  0  0  0  0
  2  5  1  0  0  0  0
  3  6  1  0  0  0  0
  4  7  1  0  0  0  0
  5 23  1  0  0  0  0
  5  9  1  0  0  0  0
  5  8  1  0  0  0  0
  6 10  1  0  0  0  0
  6 24  1  0  0  0  0
  6 11  1  0  0  0  0
  7 25  1  0  0  0  0
  7 12  1  0  0  0  0
  7 13  1  0  0  0  0
  8 26  1  0  0  0  0
  8 14  1  0  0  0  0
  8 27  1  0  0  0  0
  9 29  1  0  0  0  0
  9 28  1  0  0  0  0
  9 15  1  0  0  0  0
 10 30  1  0  0  0  0
 10 16  1  0  0  0  0
 10 31  1  0  0  0  0
 11 17  1  0  0  0  0
 11 32  1  0  0  0  0
 11 33  1  0  0  0  0
 12 34  1  0  0  0  0
 12 18  1  0  0  0  0
 12 35  1  0  0  0  0
 13 37  1  0  0  0  0
 13 19  1  0  0  0  0
 13 36  1  0  0  0  0
 14 20  1  0  0  0  0
 14 38  1  0  0  0  0
 14 39  1  0  0  0  0
 15 41  1  0  0  0  0
 15 20  1  0  0  0  0
 15 40  1  0  0  0  0
 16 43  1  0  0  0  0
 16 42  1  0  0  0  0
 16 21  1  0  0  0  0
 17 21  1  0  0  0  0
 17 45  1  0  0  0  0
 17 44  1  0  0  0  0
 18 46  1  0  0  0  0
 18 22  1  0  0  0  0
 18 47  1  0  0  0  0
 19 49  1  0  0  0  0
 19 22  1  0  0  0  0
 19 48  1  0  0  0  0
 20 50  1  0  0  0  0
 20 51  1  0  0  0  0
 21 52  1  0  0  0  0
 21 53  1  0  0  0  0
 22 54  1  0  0  0  0
 22 55  1  0  0  0  0
M  END
