decoy-1038
 OpenBabel06062114513D

  6  5  0  0  0  0  0  0  0  0999 V2000
   -0.0170    1.3220    0.0060 C   0  0  0  0  0  0  0  0  0  0  0  0
    0.0010   -0.0190    0.0000 C   0  0  0  0  0  0  0  0  0  0  0  0
    1.6770    2.4330   -0.0020 I   0  0  0  0  0  0  0  0  0  0  0  0
   -1.7400    2.3870    0.0250 I   0  0  0  0  0  0  0  0  0  0  0  0
   -1.6930   -1.1300    0.0080 I   0  0  0  0  0  0  0  0  0  0  0  0
    1.7240   -1.0840   -0.0190 I   0  0  0  0  0  0  0  0  0  0  0  0
  1  4  1  0  0  0  0
  1  2  2  0  0  0  0
  1  3  1  0  0  0  0
  2  5  1  0  0  0  0
  2  6  1  0  0  0  0
M  END
