decoy-561
 OpenBabel06062114513D

 14 14  0  0  0  0  0  0  0  0999 V2000
   -0.0340    1.3960    0.0210 C   0  0  0  0  0  0  0  0  0  0  0  0
   -0.0170   -0.0150   -0.0140 C   0  0  0  0  0  0  0  0  0  0  0  0
    1.1770    2.1170    0.0360 C   0  0  0  0  0  0  0  0  0  0  0  0
   -1.2100    2.0770    0.0390 O   0  0  0  0  0  0  0  0  0  0  0  0
    1.2130   -0.7040   -0.0500 C   0  0  0  0  0  0  0  0  0  0  0  0
   -1.1750   -0.7250   -0.0100 O   0  0  0  0  0  0  0  0  0  0  0  0
    2.4110    1.4290    0.0040 C   0  0  0  0  0  0  0  0  0  0  0  0
    1.1170    3.9820    0.0890 Br  0  0  0  0  0  0  0  0  0  0  0  0
    2.4290    0.0150   -0.0410 C   0  0  0  0  0  0  0  0  0  0  0  0
    1.2000   -2.5700   -0.1030 Br  0  0  0  0  0  0  0  0  0  0  0  0
    4.0120    2.3890    0.0200 Br  0  0  0  0  0  0  0  0  0  0  0  0
    4.0540   -0.9030   -0.0860 Br  0  0  0  0  0  0  0  0  0  0  0  0
   -1.8880    1.4590   -0.3050 H   0  0  0  0  0  0  0  0  0  0  0  0
   -1.8620   -0.1250    0.3460 H   0  0  0  0  0  0  0  0  0  0  0  0
  1  3  2  0  0  0  0
  1  4  1  0  0  0  0
  1  2  1  0  0  0  0
  2  6  1  0  0  0  0
  2  5  2  0  0  0  0
  3  8  1  0  0  0  0
  3  7  1  0  0  0  0
  4 13  1  0  0  0  0
  5  9  1  0  0  0  0
  5 10  1  0  0  0  0
  6 14  1  0  0  0  0
  7 11  1  0  0  0  0
  7  9  2  0  0  0  0
  9 12  1  0  0  0  0
M  END
