
  ACD/Labs06062115073D

 55 58  0  0  0  0  0  0  0  0  2 V2000
   16.3140   -7.2490   -0.0911 C   0  0  0  0  0  0  0  0  0  0  0  0
   16.3214   -8.5692   -0.1195 N   0  3  0  0  0  0  0  0  0  0  0  0
   17.6297   -6.8952   -0.0413 C   0  0  0  0  0  0  0  0  0  0  0  0
   15.2820   -6.3339   -0.1039 C   0  0  0  0  0  0  0  0  0  0  0  0
   17.6245   -8.8961   -0.0847 C   0  0  0  0  0  0  0  0  0  0  0  0
   15.1573   -9.4676   -0.1751 C   0  0  0  0  0  0  0  0  0  0  0  0
   18.3363   -7.8928   -0.0402 O   0  0  0  0  0  0  0  0  0  0  0  0
   18.0019   -5.5642    0.0000 C   0  0  0  0  0  0  0  0  0  0  0  0
   15.6427   -4.9918   -0.0634 C   0  0  0  0  0  0  0  0  0  0  0  0
   18.1377  -10.3186   -0.0961 C   0  0  0  0  0  0  0  0  0  0  0  0
   14.9393   -9.9261   -1.6167 C   0  0  0  0  0  0  0  0  0  0  0  0
   16.9852   -4.6126   -0.0110 C   0  0  0  0  0  0  0  0  0  0  0  0
   19.6657  -10.4069   -0.1951 C   0  0  0  0  0  0  0  0  0  0  0  0
   13.6850  -10.7963   -1.6751 C   0  0  0  0  0  0  0  0  0  0  0  0
   19.9917  -11.9039   -0.2508 C   0  0  0  0  0  0  0  0  0  0  0  0
   21.4723  -12.2074   -0.2610 C   0  0  0  0  0  0  0  0  0  0  0  0
   21.9770  -13.4534   -0.2288 N   0  3  0  0  0  0  0  0  0  0  0  0
   22.3647  -11.3608   -0.3029 O   0  0  0  0  0  0  0  0  0  0  0  0
   23.2857  -13.2721   -0.2522 C   0  0  0  0  0  0  0  0  0  0  0  0
   21.2458  -14.7331   -0.1869 C   0  0  0  0  0  0  0  0  0  0  0  0
   23.4518  -11.9199   -0.3031 C   0  0  0  0  0  0  0  0  0  0  0  0
   24.3383  -14.1640   -0.2385 C   0  0  0  0  0  0  0  0  0  0  0  0
   20.8201  -15.1411   -1.6038 C   0  0  0  0  0  0  0  0  0  0  0  0
   24.7167  -11.3631   -0.3480 C   0  0  0  0  0  0  0  0  0  0  0  0
   25.6161  -13.6175   -0.2819 C   0  0  0  0  0  0  0  0  0  0  0  0
   20.0986  -16.4897   -1.5528 C   0  0  0  0  0  0  0  0  0  0  0  0
   25.8023  -12.2353   -0.3371 C   0  0  0  0  0  0  0  0  0  0  0  0
   14.2205   -6.6594   -0.1445 H   0  0  0  0  0  0  0  0  0  0  0  0
   15.3504  -10.3426    0.4817 H   0  0  0  0  0  0  0  0  0  0  0  0
   14.2646   -8.9177    0.1927 H   0  0  0  0  0  0  0  0  0  0  0  0
   19.0729   -5.2716    0.0403 H   0  0  0  0  0  0  0  0  0  0  0  0
   14.8496   -4.2139   -0.0730 H   0  0  0  0  0  0  0  0  0  0  0  0
   17.8096  -10.8141    0.8425 H   0  0  0  0  0  0  0  0  0  0  0  0
   17.6907  -10.8424   -0.9679 H   0  0  0  0  0  0  0  0  0  0  0  0
   14.8091   -9.0401   -2.2742 H   0  0  0  0  0  0  0  0  0  0  0  0
   15.8176  -10.5150   -1.9575 H   0  0  0  0  0  0  0  0  0  0  0  0
   17.2493   -3.5340    0.0226 H   0  0  0  0  0  0  0  0  0  0  0  0
   20.0244   -9.8980   -1.1153 H   0  0  0  0  0  0  0  0  0  0  0  0
   20.1392   -9.9404    0.6951 H   0  0  0  0  0  0  0  0  0  0  0  0
   13.4142  -10.9842   -2.7361 H   0  0  0  0  0  0  0  0  0  0  0  0
   13.8823  -11.7642   -1.1663 H   0  0  0  0  0  0  0  0  0  0  0  0
   12.8474  -10.2726   -1.1663 H   0  0  0  0  0  0  0  0  0  0  0  0
   19.5454  -12.3985    0.6383 H   0  0  0  0  0  0  0  0  0  0  0  0
   19.5468  -12.3307   -1.1751 H   0  0  0  0  0  0  0  0  0  0  0  0
   21.9133  -15.5065    0.2497 H   0  0  0  0  0  0  0  0  0  0  0  0
   20.3514  -14.6072    0.4600 H   0  0  0  0  0  0  0  0  0  0  0  0
   24.1665  -15.2608   -0.1949 H   0  0  0  0  0  0  0  0  0  0  0  0
   20.1355  -14.3721   -2.0214 H   0  0  0  0  0  0  0  0  0  0  0  0
   21.7191  -15.2279   -2.2508 H   0  0  0  0  0  0  0  0  0  0  0  0
   24.8550  -10.2616   -0.3910 H   0  0  0  0  0  0  0  0  0  0  0  0
   26.4983  -14.2928   -0.2723 H   0  0  0  0  0  0  0  0  0  0  0  0
   19.9077  -16.8466   -2.5876 H   0  0  0  0  0  0  0  0  0  0  0  0
   20.7328  -17.2286   -1.0175 H   0  0  0  0  0  0  0  0  0  0  0  0
   19.1321  -16.3722   -1.0175 H   0  0  0  0  0  0  0  0  0  0  0  0
   26.8330  -11.8220   -0.3731 H   0  0  0  0  0  0  0  0  0  0  0  0
  1  3  2  0  0  0  0
  1  2  1  0  0  0  0
  1  4  1  0  0  0  0
  2  5  2  0  0  0  0
  2  6  1  0  0  0  0
  3  8  1  0  0  0  0
  3  7  1  0  0  0  0
  4  9  2  0  0  0  0
  5  7  1  0  0  0  0
  5 10  1  0  0  0  0
  6 11  1  0  0  0  0
  8 12  2  0  0  0  0
  9 12  1  0  0  0  0
 10 13  1  0  0  0  0
 11 14  1  0  0  0  0
 13 15  1  0  0  0  0
 15 16  1  0  0  0  0
 16 17  2  0  0  0  0
 16 18  1  0  0  0  0
 17 20  1  0  0  0  0
 17 19  1  0  0  0  0
 18 21  1  0  0  0  0
 19 21  2  0  0  0  0
 19 22  1  0  0  0  0
 20 23  1  0  0  0  0
 21 24  1  0  0  0  0
 22 25  2  0  0  0  0
 23 26  1  0  0  0  0
 24 27  2  0  0  0  0
 25 27  1  0  0  0  0
 28  4  1  0  0  0  0
 29  6  1  0  0  0  0
 30  6  1  0  0  0  0
 31  8  1  0  0  0  0
 32  9  1  0  0  0  0
 33 10  1  0  0  0  0
 34 10  1  0  0  0  0
 35 11  1  0  0  0  0
 36 11  1  0  0  0  0
 37 12  1  0  0  0  0
 38 13  1  0  0  0  0
 39 13  1  0  0  0  0
 40 14  1  0  0  0  0
 41 14  1  0  0  0  0
 42 14  1  0  0  0  0
 43 15  1  0  0  0  0
 44 15  1  0  0  0  0
 45 20  1  0  0  0  0
 46 20  1  0  0  0  0
 47 22  1  0  0  0  0
 48 23  1  0  0  0  0
 49 23  1  0  0  0  0
 50 24  1  0  0  0  0
 51 25  1  0  0  0  0
 52 26  1  0  0  0  0
 53 26  1  0  0  0  0
 54 26  1  0  0  0  0
 55 27  1  0  0  0  0
M  CHG  2   2   1  17   1
M  END
