decoy-649
 OpenBabel06062114513D

 17 17  0  0  0  0  0  0  0  0999 V2000
    0.0850    1.4890    0.0400 N   0  0  0  0  0  0  0  0  0  0  0  0
    0.0410    0.1490    0.0270 C   0  0  0  0  0  0  0  0  0  0  0  0
    1.2700    2.1140    0.0040 C   0  0  0  0  0  0  0  0  0  0  0  0
   -1.1270    2.2310    0.0800 C   0  0  0  0  0  0  0  0  0  0  0  0
    1.1690   -0.5900   -0.0190 C   0  0  0  0  0  0  0  0  0  0  0  0
    2.4270    1.4210   -0.0440 C   0  0  0  0  0  0  0  0  0  0  0  0
   -1.8220    2.1840    1.3830 C   0  0  0  0  0  0  0  0  0  0  0  0
    2.3780    0.0520   -0.0570 C   0  0  0  0  0  0  0  0  0  0  0  0
    1.0380   -2.6140   -0.0310 I   0  0  0  0  0  0  0  0  0  0  0  0
    4.1900    2.4220   -0.0860 I   0  0  0  0  0  0  0  0  0  0  0  0
   -3.0100    2.8110    1.5270 O   0  0  0  0  0  0  0  0  0  0  0  0
   -1.2770    1.5920    2.4700 O   0  0  0  0  0  0  0  0  0  0  0  0
    3.4130   -0.5960   -0.1010 O   0  0  0  0  0  0  0  0  0  0  0  0
   -0.8310   -0.3290    0.0540 H   0  0  0  0  0  0  0  0  0  0  0  0
    1.3230    3.1070    0.0230 H   0  0  0  0  0  0  0  0  0  0  0  0
   -0.9710    3.2890   -0.1530 H   0  0  0  0  0  0  0  0  0  0  0  0
   -1.8090    1.8530   -0.6880 H   0  0  0  0  0  0  0  0  0  0  0  0
  1  4  1  0  0  0  0
  1  2  1  0  0  0  0
  1  3  1  0  0  0  0
  2 14  1  0  0  0  0
  2  5  2  0  0  0  0
  3 15  1  0  0  0  0
  3  6  2  0  0  0  0
  4  7  1  0  0  0  0
  4 16  1  0  0  0  0
  4 17  1  0  0  0  0
  5  8  1  0  0  0  0
  5  9  1  0  0  0  0
  6  8  1  0  0  0  0
  6 10  1  0  0  0  0
  7 11  2  0  0  0  0
  7 12  1  0  0  0  0
  8 13  2  0  0  0  0
M  END
