decoy-770
 OpenBabel06062114513D

 54 54  0  0  0  0  0  0  0  0999 V2000
   -0.1180    1.6290   -0.4580 C   0  0  0  0  0  0  0  0  0  0  0  0
   -0.6200    0.1710   -0.3610 C   0  0  0  0  0  0  0  0  0  0  0  0
    1.0890    1.8480    0.3690 C   0  0  0  0  0  0  0  0  0  0  0  0
   -1.0070   -0.1980    1.0220 C   0  0  0  0  0  0  0  0  0  0  0  0
    1.6550    3.2130    0.2890 C   0  0  0  0  0  0  0  0  0  0  0  0
   -0.0760   -1.0900    1.7500 C   0  0  0  0  0  0  0  0  0  0  0  0
    2.8610    3.3780    1.2380 C   0  0  0  0  0  0  0  0  0  0  0  0
   -0.5640   -1.3060    3.1980 C   0  0  0  0  0  0  0  0  0  0  0  0
    2.4490    3.2300    2.6520 C   0  0  0  0  0  0  0  0  0  0  0  0
    0.2600   -2.3350    3.8690 C   0  0  0  0  0  0  0  0  0  0  0  0
    3.5040    3.5280    3.6450 C   0  0  0  0  0  0  0  0  0  0  0  0
   -0.0370   -2.5880    5.3000 C   0  0  0  0  0  0  0  0  0  0  0  0
    2.9800    3.3430    5.0860 C   0  0  0  0  0  0  0  0  0  0  0  0
    1.0390   -1.9930    6.2350 C   0  0  0  0  0  0  0  0  0  0  0  0
    2.7090    1.9180    5.3750 C   0  0  0  0  0  0  0  0  0  0  0  0
    1.1310   -0.5230    6.0970 C   0  0  0  0  0  0  0  0  0  0  0  0
    2.1990    1.6420    6.7370 C   0  0  0  0  0  0  0  0  0  0  0  0
    2.1110    0.1230    6.9990 C   0  0  0  0  0  0  0  0  0  0  0  0
    0.1100    1.8490   -1.5040 H   0  0  0  0  0  0  0  0  0  0  0  0
   -0.9150    2.3020   -0.1290 H   0  0  0  0  0  0  0  0  0  0  0  0
   -1.5120    0.0790   -0.9850 H   0  0  0  0  0  0  0  0  0  0  0  0
    0.1340   -0.5060   -0.7710 H   0  0  0  0  0  0  0  0  0  0  0  0
    0.8480    1.6580    1.3440 H   0  0  0  0  0  0  0  0  0  0  0  0
   -1.1270    0.6600    1.5650 H   0  0  0  0  0  0  0  0  0  0  0  0
    1.9860    3.4070   -0.7350 H   0  0  0  0  0  0  0  0  0  0  0  0
    0.8930    3.9520    0.5520 H   0  0  0  0  0  0  0  0  0  0  0  0
   -0.0310   -2.0540    1.2350 H   0  0  0  0  0  0  0  0  0  0  0  0
    0.9260   -0.6550    1.7710 H   0  0  0  0  0  0  0  0  0  0  0  0
    3.6220    2.6320    0.9940 H   0  0  0  0  0  0  0  0  0  0  0  0
    3.2880    4.3730    1.0800 H   0  0  0  0  0  0  0  0  0  0  0  0
   -0.5050   -0.3590    3.7400 H   0  0  0  0  0  0  0  0  0  0  0  0
   -1.6060   -1.6380    3.1820 H   0  0  0  0  0  0  0  0  0  0  0  0
    1.6620    3.8600    2.8250 H   0  0  0  0  0  0  0  0  0  0  0  0
    0.1280   -3.2130    3.3610 H   0  0  0  0  0  0  0  0  0  0  0  0
    4.3660    2.8740    3.4870 H   0  0  0  0  0  0  0  0  0  0  0  0
    3.8290    4.5650    3.5250 H   0  0  0  0  0  0  0  0  0  0  0  0
   -1.0240   -2.2120    5.5870 H   0  0  0  0  0  0  0  0  0  0  0  0
   -0.0480   -3.6710    5.4440 H   0  0  0  0  0  0  0  0  0  0  0  0
    3.7370    3.7150    5.7810 H   0  0  0  0  0  0  0  0  0  0  0  0
    2.0690    3.9340    5.2180 H   0  0  0  0  0  0  0  0  0  0  0  0
    0.7830   -2.2500    7.2660 H   0  0  0  0  0  0  0  0  0  0  0  0
    2.0060   -2.4450    5.9960 H   0  0  0  0  0  0  0  0  0  0  0  0
    2.0250    1.5730    4.6990 H   0  0  0  0  0  0  0  0  0  0  0  0
    1.3910   -0.3070    5.1330 H   0  0  0  0  0  0  0  0  0  0  0  0
    2.8730    2.0790    7.4790 H   0  0  0  0  0  0  0  0  0  0  0  0
    1.2100    2.0910    6.8590 H   0  0  0  0  0  0  0  0  0  0  0  0
    1.8060   -0.0360    8.0360 H   0  0  0  0  0  0  0  0  0  0  0  0
    3.1010   -0.3190    6.8570 H   0  0  0  0  0  0  0  0  0  0  0  0
    1.8080    1.1830    0.0770 H   0  0  0  0  0  0  0  0  0  0  0  0
   -1.9130   -0.6710    0.9780 H   0  0  0  0  0  0  0  0  0  0  0  0
    2.1300    2.2690    2.7950 H   0  0  0  0  0  0  0  0  0  0  0  0
    1.2440   -2.0690    3.7840 H   0  0  0  0  0  0  0  0  0  0  0  0
    3.5800    1.3970    5.2470 H   0  0  0  0  0  0  0  0  0  0  0  0
    0.2090   -0.1210    6.2810 H   0  0  0  0  0  0  0  0  0  0  0  0
  1  2  1  0  0  0  0
  1 20  1  0  0  0  0
  1  3  1  0  0  0  0
  1 19  1  0  0  0  0
  2  4  1  0  0  0  0
  2 21  1  0  0  0  0
  2 22  1  0  0  0  0
  3 23  1  0  0  0  0
  3  5  1  0  0  0  0
  3 49  1  0  0  0  0
  4 24  1  0  0  0  0
  4  6  1  0  0  0  0
  4 50  1  0  0  0  0
  5 26  1  0  0  0  0
  5  7  1  0  0  0  0
  5 25  1  0  0  0  0
  6 28  1  0  0  0  0
  6  8  1  0  0  0  0
  6 27  1  0  0  0  0
  7  9  1  0  0  0  0
  7 29  1  0  0  0  0
  7 30  1  0  0  0  0
  8 31  1  0  0  0  0
  8 10  1  0  0  0  0
  8 32  1  0  0  0  0
  9 51  1  0  0  0  0
  9 33  1  0  0  0  0
  9 11  1  0  0  0  0
 10 12  1  0  0  0  0
 10 34  1  0  0  0  0
 10 52  1  0  0  0  0
 11 13  1  0  0  0  0
 11 35  1  0  0  0  0
 11 36  1  0  0  0  0
 12 38  1  0  0  0  0
 12 37  1  0  0  0  0
 12 14  1  0  0  0  0
 13 40  1  0  0  0  0
 13 15  1  0  0  0  0
 13 39  1  0  0  0  0
 14 41  1  0  0  0  0
 14 16  1  0  0  0  0
 14 42  1  0  0  0  0
 15 17  1  0  0  0  0
 15 43  1  0  0  0  0
 15 53  1  0  0  0  0
 16 54  1  0  0  0  0
 16 18  1  0  0  0  0
 16 44  1  0  0  0  0
 17 46  1  0  0  0  0
 17 18  1  0  0  0  0
 17 45  1  0  0  0  0
 18 47  1  0  0  0  0
 18 48  1  0  0  0  0
M  END
