decoy-1022
 OpenBabel06062114513D

 68 72  0  0  0  0  0  0  0  0999 V2000
    1.4110   -0.5970   -1.5710 C   0  0  0  0  0  0  0  0  0  0  0  0
    0.8940   -2.0650   -1.6280 C   0  0  0  0  0  0  0  0  0  0  0  0
    2.8670   -0.7340   -2.0840 C   0  0  0  0  0  0  0  0  0  0  0  0
    0.4400    0.2580   -2.4540 C   0  0  0  0  0  0  0  0  0  0  0  0
    1.6320    0.0510   -0.1520 C   0  0  0  0  0  0  0  0  0  0  0  0
   -0.5350   -2.2230   -1.0130 C   0  0  0  0  0  0  0  0  0  0  0  0
    2.0700   -2.8940   -1.0840 C   0  0  0  0  0  0  0  0  0  0  0  0
    3.3030   -2.1880   -1.6940 C   0  0  0  0  0  0  0  0  0  0  0  0
    3.6180    0.4300   -1.3900 C   0  0  0  0  0  0  0  0  0  0  0  0
   -1.0290    0.1570   -1.9400 C   0  0  0  0  0  0  0  0  0  0  0  0
    3.0790    0.3750   -0.0100 C   0  0  0  0  0  0  0  0  0  0  0  0
   -1.5590   -1.3160   -1.7820 C   0  0  0  0  0  0  0  0  0  0  0  0
   -1.0170   -3.7000   -1.0630 C   0  0  0  0  0  0  0  0  0  0  0  0
    5.1650    0.3660   -1.4940 C   0  0  0  0  0  0  0  0  0  0  0  0
    3.3720    1.5500    0.8550 C   0  0  0  0  0  0  0  0  0  0  0  0
   -3.0360   -1.4840   -1.1980 C   0  0  0  0  0  0  0  0  0  0  0  0
   -2.4440   -3.8870   -0.8940 C   0  0  0  0  0  0  0  0  0  0  0  0
   -3.3850   -2.9160   -0.9610 C   0  0  0  0  0  0  0  0  0  0  0  0
   -4.0460   -0.9110   -2.2620 C   0  0  0  0  0  0  0  0  0  0  0  0
   -3.2030   -0.7030    0.1580 C   0  0  0  0  0  0  0  0  0  0  0  0
   -4.8000   -3.2870   -0.7290 C   0  0  0  0  0  0  0  0  0  0  0  0
   -5.5400   -1.2170   -1.9870 C   0  0  0  0  0  0  0  0  0  0  0  0
   -5.8180   -2.7410   -1.7870 C   0  0  0  0  0  0  0  0  0  0  0  0
   -7.2690   -3.0160   -1.4230 C   0  0  0  0  0  0  0  0  0  0  0  0
   -8.2630   -2.4920   -2.4170 C   0  0  0  0  0  0  0  0  0  0  0  0
   -7.5760   -4.4540   -1.1260 C   0  0  0  0  0  0  0  0  0  0  0  0
    0.8030   -2.3580   -2.6840 H   0  0  0  0  0  0  0  0  0  0  0  0
    2.9170   -0.6160   -3.1720 H   0  0  0  0  0  0  0  0  0  0  0  0
   -0.5010   -1.9180    0.0340 H   0  0  0  0  0  0  0  0  0  0  0  0
   -1.5780   -1.7130   -2.8050 H   0  0  0  0  0  0  0  0  0  0  0  0
    0.7530    1.3060   -2.4560 H   0  0  0  0  0  0  0  0  0  0  0  0
    0.4730   -0.0870   -3.4920 H   0  0  0  0  0  0  0  0  0  0  0  0
    1.0280    0.9540   -0.0300 H   0  0  0  0  0  0  0  0  0  0  0  0
    1.3590   -0.6290    0.6560 H   0  0  0  0  0  0  0  0  0  0  0  0
    2.0990   -2.8590    0.0080 H   0  0  0  0  0  0  0  0  0  0  0  0
    2.0100   -3.9390   -1.4020 H   0  0  0  0  0  0  0  0  0  0  0  0
    3.6300   -2.7230   -2.5900 H   0  0  0  0  0  0  0  0  0  0  0  0
    4.1200   -2.2120   -0.9710 H   0  0  0  0  0  0  0  0  0  0  0  0
    3.3060    1.3670   -1.8700 H   0  0  0  0  0  0  0  0  0  0  0  0
   -1.0840    0.6750   -0.9850 H   0  0  0  0  0  0  0  0  0  0  0  0
   -1.6620    0.7020   -2.6420 H   0  0  0  0  0  0  0  0  0  0  0  0
   -0.7480   -4.1520   -2.0220 H   0  0  0  0  0  0  0  0  0  0  0  0
   -0.5000   -4.2580   -0.2770 H   0  0  0  0  0  0  0  0  0  0  0  0
    5.5990    1.3220   -1.1980 H   0  0  0  0  0  0  0  0  0  0  0  0
    5.5760   -0.4080   -0.8450 H   0  0  0  0  0  0  0  0  0  0  0  0
    5.4640    0.1610   -2.5240 H   0  0  0  0  0  0  0  0  0  0  0  0
    2.9070    1.4160    1.8340 H   0  0  0  0  0  0  0  0  0  0  0  0
    4.4470    1.6470    1.0090 H   0  0  0  0  0  0  0  0  0  0  0  0
    2.9950    2.4740    0.4110 H   0  0  0  0  0  0  0  0  0  0  0  0
   -2.7290   -4.8300   -0.7540 H   0  0  0  0  0  0  0  0  0  0  0  0
   -3.9400    0.1740   -2.3370 H   0  0  0  0  0  0  0  0  0  0  0  0
   -3.8150   -1.3250   -3.2490 H   0  0  0  0  0  0  0  0  0  0  0  0
   -2.4680   -1.0280    0.8940 H   0  0  0  0  0  0  0  0  0  0  0  0
   -3.0910    0.3710    0.0140 H   0  0  0  0  0  0  0  0  0  0  0  0
   -4.1880   -0.8470    0.6010 H   0  0  0  0  0  0  0  0  0  0  0  0
   -4.9060   -4.3740   -0.7050 H   0  0  0  0  0  0  0  0  0  0  0  0
   -5.0990   -2.9320    0.2590 H   0  0  0  0  0  0  0  0  0  0  0  0
   -5.8790   -0.6630   -1.1090 H   0  0  0  0  0  0  0  0  0  0  0  0
   -6.0970   -0.8450   -2.8500 H   0  0  0  0  0  0  0  0  0  0  0  0
   -5.6010   -3.2440   -2.7360 H   0  0  0  0  0  0  0  0  0  0  0  0
   -9.2860   -2.7710   -2.1550 H   0  0  0  0  0  0  0  0  0  0  0  0
   -8.2530   -1.4030   -2.4350 H   0  0  0  0  0  0  0  0  0  0  0  0
   -8.0490   -2.8670   -3.4210 H   0  0  0  0  0  0  0  0  0  0  0  0
   -7.0810   -4.7700   -0.2080 H   0  0  0  0  0  0  0  0  0  0  0  0
   -8.6420   -4.6180   -0.9550 H   0  0  0  0  0  0  0  0  0  0  0  0
   -7.2550   -5.1010   -1.9460 H   0  0  0  0  0  0  0  0  0  0  0  0
    3.5150   -0.4330    0.4400 H   0  0  0  0  0  0  0  0  0  0  0  0
   -7.4470   -2.5080   -0.5530 H   0  0  0  0  0  0  0  0  0  0  0  0
  1  3  1  0  0  0  0
  1  5  1  0  0  0  0
  1  2  1  0  0  0  0
  1  4  1  0  0  0  0
  2  7  1  0  0  0  0
  2  6  1  0  0  0  0
  2 27  1  0  0  0  0
  3  8  1  0  0  0  0
  3  9  1  0  0  0  0
  3 28  1  0  0  0  0
  4 10  1  0  0  0  0
  4 31  1  0  0  0  0
  4 32  1  0  0  0  0
  5 33  1  0  0  0  0
  5 11  1  0  0  0  0
  5 34  1  0  0  0  0
  6 12  1  0  0  0  0
  6 29  1  0  0  0  0
  6 13  1  0  0  0  0
  7 35  1  0  0  0  0
  7  8  1  0  0  0  0
  7 36  1  0  0  0  0
  8 38  1  0  0  0  0
  8 37  1  0  0  0  0
  9 39  1  0  0  0  0
  9 11  1  0  0  0  0
  9 14  1  0  0  0  0
 10 12  1  0  0  0  0
 10 40  1  0  0  0  0
 10 41  1  0  0  0  0
 11 67  1  0  0  0  0
 11 15  1  0  0  0  0
 12 16  1  0  0  0  0
 12 30  1  0  0  0  0
 13 17  1  0  0  0  0
 13 43  1  0  0  0  0
 13 42  1  0  0  0  0
 14 44  1  0  0  0  0
 14 45  1  0  0  0  0
 14 46  1  0  0  0  0
 15 48  1  0  0  0  0
 15 47  1  0  0  0  0
 15 49  1  0  0  0  0
 16 18  1  0  0  0  0
 16 20  1  0  0  0  0
 16 19  1  0  0  0  0
 17 50  1  0  0  0  0
 17 18  2  0  0  0  0
 18 21  1  0  0  0  0
 19 22  1  0  0  0  0
 19 51  1  0  0  0  0
 19 52  1  0  0  0  0
 20 55  1  0  0  0  0
 20 53  1  0  0  0  0
 20 54  1  0  0  0  0
 21 56  1  0  0  0  0
 21 57  1  0  0  0  0
 21 23  1  0  0  0  0
 22 23  1  0  0  0  0
 22 58  1  0  0  0  0
 22 59  1  0  0  0  0
 23 60  1  0  0  0  0
 23 24  1  0  0  0  0
 24 26  1  0  0  0  0
 24 68  1  0  0  0  0
 24 25  1  0  0  0  0
 25 61  1  0  0  0  0
 25 62  1  0  0  0  0
 25 63  1  0  0  0  0
 26 65  1  0  0  0  0
 26 64  1  0  0  0  0
 26 66  1  0  0  0  0
M  END
