decoy-458
 OpenBabel06062114513D

 36 37  0  0  0  0  0  0  0  0999 V2000
    0.0750    2.0630    0.9070 S   0  0  0  0  0  0  0  0  0  0  0  0
   -0.3960    0.6960   -0.0660 C   0  0  0  0  0  0  0  0  0  0  0  0
    1.7310    2.3720    0.8390 N   0  0  0  0  0  0  0  0  0  0  0  0
   -0.7370    3.3860    0.5630 O   0  0  0  0  0  0  0  0  0  0  0  0
   -0.2420    1.6640    2.4130 O   0  0  0  0  0  0  0  0  0  0  0  0
    0.2030   -0.5620    0.1460 C   0  0  0  0  0  0  0  0  0  0  0  0
   -1.3400    0.8440   -1.1030 C   0  0  0  0  0  0  0  0  0  0  0  0
    2.6840    2.0490   -0.5120 S   0  0  0  0  0  0  0  0  0  0  0  0
   -0.1260   -1.6550   -0.6770 C   0  0  0  0  0  0  0  0  0  0  0  0
   -1.6690   -0.2490   -1.9260 C   0  0  0  0  0  0  0  0  0  0  0  0
    1.8050    2.2000   -2.0100 C   0  0  0  0  0  0  0  0  0  0  0  0
    3.8070    3.1750   -0.5440 O   0  0  0  0  0  0  0  0  0  0  0  0
    3.3990    0.6390   -0.3460 O   0  0  0  0  0  0  0  0  0  0  0  0
   -1.0620   -1.5090   -1.7260 C   0  0  0  0  0  0  0  0  0  0  0  0
    1.1490    3.4060   -2.3260 C   0  0  0  0  0  0  0  0  0  0  0  0
    1.6980    1.1050   -2.8930 C   0  0  0  0  0  0  0  0  0  0  0  0
   -1.4130   -2.6400   -2.6140 C   0  0  0  0  0  0  0  0  0  0  0  0
    0.3840    3.5140   -3.5020 C   0  0  0  0  0  0  0  0  0  0  0  0
    0.9340    1.2130   -4.0690 C   0  0  0  0  0  0  0  0  0  0  0  0
    0.2650    2.4170   -4.3850 C   0  0  0  0  0  0  0  0  0  0  0  0
   -0.5460    2.5010   -5.6210 C   0  0  0  0  0  0  0  0  0  0  0  0
    2.1580    2.7570    1.6200 H   0  0  0  0  0  0  0  0  0  0  0  0
    0.8930   -0.6860    0.8910 H   0  0  0  0  0  0  0  0  0  0  0  0
   -1.7800    1.7490   -1.2800 H   0  0  0  0  0  0  0  0  0  0  0  0
    0.3300   -2.5550   -0.5090 H   0  0  0  0  0  0  0  0  0  0  0  0
   -2.3480   -0.1160   -2.6800 H   0  0  0  0  0  0  0  0  0  0  0  0
    1.2110    4.2080   -1.6940 H   0  0  0  0  0  0  0  0  0  0  0  0
    2.1590    0.2180   -2.6790 H   0  0  0  0  0  0  0  0  0  0  0  0
   -0.8730   -3.5520   -2.3500 H   0  0  0  0  0  0  0  0  0  0  0  0
   -2.4830   -2.8450   -2.5430 H   0  0  0  0  0  0  0  0  0  0  0  0
   -1.1690   -2.3860   -3.6470 H   0  0  0  0  0  0  0  0  0  0  0  0
   -0.0900    4.3970   -3.7050 H   0  0  0  0  0  0  0  0  0  0  0  0
    0.8610    0.4030   -4.6900 H   0  0  0  0  0  0  0  0  0  0  0  0
   -1.0080    3.4830   -5.7420 H   0  0  0  0  0  0  0  0  0  0  0  0
    0.0880    2.3130   -6.4900 H   0  0  0  0  0  0  0  0  0  0  0  0
   -1.3390    1.7520   -5.5920 H   0  0  0  0  0  0  0  0  0  0  0  0
  1  5  2  0  0  0  0
  1  2  1  0  0  0  0
  1  3  1  0  0  0  0
  1  4  2  0  0  0  0
  2  6  2  0  0  0  0
  2  7  1  0  0  0  0
  3 22  1  0  0  0  0
  3  8  1  0  0  0  0
  6 23  1  0  0  0  0
  6  9  1  0  0  0  0
  7 10  2  0  0  0  0
  7 24  1  0  0  0  0
  8 13  2  0  0  0  0
  8 11  1  0  0  0  0
  8 12  2  0  0  0  0
  9 25  1  0  0  0  0
  9 14  2  0  0  0  0
 10 14  1  0  0  0  0
 10 26  1  0  0  0  0
 11 15  2  0  0  0  0
 11 16  1  0  0  0  0
 14 17  1  0  0  0  0
 15 27  1  0  0  0  0
 15 18  1  0  0  0  0
 16 28  1  0  0  0  0
 16 19  2  0  0  0  0
 17 30  1  0  0  0  0
 17 29  1  0  0  0  0
 17 31  1  0  0  0  0
 18 20  2  0  0  0  0
 18 32  1  0  0  0  0
 19 20  1  0  0  0  0
 19 33  1  0  0  0  0
 20 21  1  0  0  0  0
 21 36  1  0  0  0  0
 21 34  1  0  0  0  0
 21 35  1  0  0  0  0
M  END
