decoy-899
 OpenBabel06062114513D

 72 72  0  0  0  0  0  0  0  0999 V2000
   -0.0320    1.6830   -0.2450 C   0  0  0  0  0  0  0  0  0  0  0  0
   -0.0090    0.2500    0.1910 C   0  0  0  0  0  0  0  0  0  0  0  0
    1.1730    2.3840   -0.4970 C   0  0  0  0  0  0  0  0  0  0  0  0
   -1.2590    2.3560   -0.4640 C   0  0  0  0  0  0  0  0  0  0  0  0
    0.0150   -0.0670    1.6860 *   0  0  0  0  0  0  0  0  0  0  0  0
    1.1520    3.7240   -0.9260 C   0  0  0  0  0  0  0  0  0  0  0  0
   -1.2810    3.6960   -0.8930 C   0  0  0  0  0  0  0  0  0  0  0  0
    0.0350   -1.5880    1.8320 C   0  0  0  0  0  0  0  0  0  0  0  0
    1.2460    0.5340    2.3220 C   0  0  0  0  0  0  0  0  0  0  0  0
   -1.2110    0.5050    2.3560 C   0  0  0  0  0  0  0  0  0  0  0  0
   -0.0750    4.3810   -1.1220 C   0  0  0  0  0  0  0  0  0  0  0  0
    0.0620   -2.2360    3.2520 C   0  0  0  0  0  0  0  0  0  0  0  0
    0.0790   -3.7890    3.2010 C   0  0  0  0  0  0  0  0  0  0  0  0
    0.1060   -4.4350    4.6120 C   0  0  0  0  0  0  0  0  0  0  0  0
    0.1230   -5.9860    4.5590 C   0  0  0  0  0  0  0  0  0  0  0  0
    0.1490   -6.6310    5.9700 C   0  0  0  0  0  0  0  0  0  0  0  0
    0.1670   -8.1820    5.9160 C   0  0  0  0  0  0  0  0  0  0  0  0
    0.1930   -8.8280    7.3270 C   0  0  0  0  0  0  0  0  0  0  0  0
    0.2100  -10.3780    7.2740 C   0  0  0  0  0  0  0  0  0  0  0  0
    0.2360  -11.0240    8.6840 C   0  0  0  0  0  0  0  0  0  0  0  0
    0.2530  -12.5750    8.6310 C   0  0  0  0  0  0  0  0  0  0  0  0
    0.2790  -13.2200   10.0420 C   0  0  0  0  0  0  0  0  0  0  0  0
    0.2960  -14.7710    9.9880 C   0  0  0  0  0  0  0  0  0  0  0  0
    0.3210  -15.4170   11.3990 C   0  0  0  0  0  0  0  0  0  0  0  0
    0.3380  -16.9670   11.3450 C   0  0  0  0  0  0  0  0  0  0  0  0
    0.3640  -17.6130   12.7480 C   0  0  0  0  0  0  0  0  0  0  0  0
   -0.8760   -0.2370   -0.2690 H   0  0  0  0  0  0  0  0  0  0  0  0
    0.8560   -0.2170   -0.2920 H   0  0  0  0  0  0  0  0  0  0  0  0
    2.0760    1.9230   -0.3670 H   0  0  0  0  0  0  0  0  0  0  0  0
   -2.1470    1.8730   -0.3090 H   0  0  0  0  0  0  0  0  0  0  0  0
    2.0300    4.2200   -1.0990 H   0  0  0  0  0  0  0  0  0  0  0  0
   -2.1740    4.1710   -1.0410 H   0  0  0  0  0  0  0  0  0  0  0  0
   -0.8440   -2.0020    1.3250 H   0  0  0  0  0  0  0  0  0  0  0  0
    0.9090   -1.9810    1.3010 H   0  0  0  0  0  0  0  0  0  0  0  0
    1.2690    1.6200    2.2090 H   0  0  0  0  0  0  0  0  0  0  0  0
    1.2880    0.3400    3.3950 H   0  0  0  0  0  0  0  0  0  0  0  0
    2.1590    0.1330    1.8740 H   0  0  0  0  0  0  0  0  0  0  0  0
   -2.1270    0.0830    1.9330 H   0  0  0  0  0  0  0  0  0  0  0  0
   -1.2190    0.3100    3.4290 H   0  0  0  0  0  0  0  0  0  0  0  0
   -1.2620    1.5900    2.2430 H   0  0  0  0  0  0  0  0  0  0  0  0
   -0.0910    5.3540   -1.4350 H   0  0  0  0  0  0  0  0  0  0  0  0
    0.9510   -1.9050    3.7920 H   0  0  0  0  0  0  0  0  0  0  0  0
   -0.8190   -1.9260    3.8160 H   0  0  0  0  0  0  0  0  0  0  0  0
   -0.8100   -4.1380    2.6680 H   0  0  0  0  0  0  0  0  0  0  0  0
    0.9610   -4.1180    2.6440 H   0  0  0  0  0  0  0  0  0  0  0  0
    0.9950   -4.0870    5.1460 H   0  0  0  0  0  0  0  0  0  0  0  0
   -0.7760   -4.1080    5.1700 H   0  0  0  0  0  0  0  0  0  0  0  0
   -0.7660   -6.3330    4.0250 H   0  0  0  0  0  0  0  0  0  0  0  0
    1.0050   -6.3130    4.0010 H   0  0  0  0  0  0  0  0  0  0  0  0
    1.0390   -6.2840    6.5030 H   0  0  0  0  0  0  0  0  0  0  0  0
   -0.7330   -6.3040    6.5270 H   0  0  0  0  0  0  0  0  0  0  0  0
   -0.7220   -8.5290    5.3820 H   0  0  0  0  0  0  0  0  0  0  0  0
    1.0490   -8.5090    5.3590 H   0  0  0  0  0  0  0  0  0  0  0  0
    1.0820   -8.4800    7.8610 H   0  0  0  0  0  0  0  0  0  0  0  0
   -0.6900   -8.5000    7.8840 H   0  0  0  0  0  0  0  0  0  0  0  0
   -0.6790  -10.7260    6.7400 H   0  0  0  0  0  0  0  0  0  0  0  0
    1.0920  -10.7060    6.7160 H   0  0  0  0  0  0  0  0  0  0  0  0
    1.1250  -10.6770    9.2180 H   0  0  0  0  0  0  0  0  0  0  0  0
   -0.6470  -10.6970    9.2420 H   0  0  0  0  0  0  0  0  0  0  0  0
   -0.6360  -12.9220    8.0970 H   0  0  0  0  0  0  0  0  0  0  0  0
    1.1350  -12.9020    8.0740 H   0  0  0  0  0  0  0  0  0  0  0  0
    1.1680  -12.8730   10.5760 H   0  0  0  0  0  0  0  0  0  0  0  0
   -0.6040  -12.8930   10.5990 H   0  0  0  0  0  0  0  0  0  0  0  0
   -0.5930  -15.1190    9.4540 H   0  0  0  0  0  0  0  0  0  0  0  0
    1.1780  -15.0980    9.4310 H   0  0  0  0  0  0  0  0  0  0  0  0
    1.2100  -15.0700   11.9340 H   0  0  0  0  0  0  0  0  0  0  0  0
   -0.5610  -15.0900   11.9570 H   0  0  0  0  0  0  0  0  0  0  0  0
   -0.5500  -17.3210   10.8150 H   0  0  0  0  0  0  0  0  0  0  0  0
    1.2200  -17.3010   10.7920 H   0  0  0  0  0  0  0  0  0  0  0  0
    0.3750  -18.7000   12.6530 H   0  0  0  0  0  0  0  0  0  0  0  0
    1.2570  -17.3010   13.2940 H   0  0  0  0  0  0  0  0  0  0  0  0
   -0.5210  -17.3220   13.3170 H   0  0  0  0  0  0  0  0  0  0  0  0
  1  2  1  0  0  0  0
  1  3  2  0  0  0  0
  1  4  1  0  0  0  0
  2  5  1  0  0  0  0
  2 27  1  0  0  0  0
  2 28  1  0  0  0  0
  3 29  1  0  0  0  0
  3  6  1  0  0  0  0
  4 30  1  0  0  0  0
  4  7  2  0  0  0  0
  5  8  1  0  0  0  0
  5  9  1  0  0  0  0
  5 10  1  0  0  0  0
  6 11  2  0  0  0  0
  6 31  1  0  0  0  0
  7 11  1  0  0  0  0
  7 32  1  0  0  0  0
  8 12  1  0  0  0  0
  8 33  1  0  0  0  0
  8 34  1  0  0  0  0
  9 36  1  0  0  0  0
  9 35  1  0  0  0  0
  9 37  1  0  0  0  0
 10 39  1  0  0  0  0
 10 38  1  0  0  0  0
 10 40  1  0  0  0  0
 11 41  1  0  0  0  0
 12 42  1  0  0  0  0
 12 43  1  0  0  0  0
 12 13  1  0  0  0  0
 13 14  1  0  0  0  0
 13 44  1  0  0  0  0
 13 45  1  0  0  0  0
 14 46  1  0  0  0  0
 14 47  1  0  0  0  0
 14 15  1  0  0  0  0
 15 16  1  0  0  0  0
 15 48  1  0  0  0  0
 15 49  1  0  0  0  0
 16 50  1  0  0  0  0
 16 51  1  0  0  0  0
 16 17  1  0  0  0  0
 17 18  1  0  0  0  0
 17 52  1  0  0  0  0
 17 53  1  0  0  0  0
 18 54  1  0  0  0  0
 18 55  1  0  0  0  0
 18 19  1  0  0  0  0
 19 20  1  0  0  0  0
 19 56  1  0  0  0  0
 19 57  1  0  0  0  0
 20 58  1  0  0  0  0
 20 59  1  0  0  0  0
 20 21  1  0  0  0  0
 21 22  1  0  0  0  0
 21 60  1  0  0  0  0
 21 61  1  0  0  0  0
 22 62  1  0  0  0  0
 22 63  1  0  0  0  0
 22 23  1  0  0  0  0
 23 24  1  0  0  0  0
 23 64  1  0  0  0  0
 23 65  1  0  0  0  0
 24 66  1  0  0  0  0
 24 67  1  0  0  0  0
 24 25  1  0  0  0  0
 25 26  1  0  0  0  0
 25 68  1  0  0  0  0
 25 69  1  0  0  0  0
 26 71  1  0  0  0  0
 26 72  1  0  0  0  0
 26 70  1  0  0  0  0
M  END
