decoy-726
 OpenBabel06062114513D

 71 75  0  0  0  0  0  0  0  0999 V2000
   -0.2660    2.9700   -0.5040 C   0  0  0  0  0  0  0  0  0  0  0  0
    0.0850    3.0860    0.8690 C   0  0  0  0  0  0  0  0  0  0  0  0
    0.7000    2.9390   -1.4920 O   0  0  0  0  0  0  0  0  0  0  0  0
   -1.6150    2.8870   -0.8930 C   0  0  0  0  0  0  0  0  0  0  0  0
    1.4550    3.1860    1.1520 C   0  0  0  0  0  0  0  0  0  0  0  0
   -0.9530    3.1010    1.8400 C   0  0  0  0  0  0  0  0  0  0  0  0
    2.0050    2.9410   -1.1240 C   0  0  0  0  0  0  0  0  0  0  0  0
   -2.6360    2.8980    0.0750 C   0  0  0  0  0  0  0  0  0  0  0  0
    2.3870    3.0730    0.1640 C   0  0  0  0  0  0  0  0  0  0  0  0
    1.8530    3.4670    2.2740 O   0  0  0  0  0  0  0  0  0  0  0  0
   -2.3000    3.0210    1.4360 C   0  0  0  0  0  0  0  0  0  0  0  0
   -0.7160    3.1870    3.1740 O   0  0  0  0  0  0  0  0  0  0  0  0
    2.9320    2.8340   -2.1460 C   0  0  0  0  0  0  0  0  0  0  0  0
   -3.9480    2.8430   -0.3060 O   0  0  0  0  0  0  0  0  0  0  0  0
    3.0390    3.8570   -3.1150 C   0  0  0  0  0  0  0  0  0  0  0  0
    3.7660    1.6970   -2.2530 C   0  0  0  0  0  0  0  0  0  0  0  0
   -4.5030    1.5130   -0.3510 C   0  0  0  0  0  0  0  0  0  0  0  0
    3.9700    3.7500   -4.1660 C   0  0  0  0  0  0  0  0  0  0  0  0
    4.6960    1.5910   -3.3040 C   0  0  0  0  0  0  0  0  0  0  0  0
   -6.0340    1.6390   -0.5770 C   0  0  0  0  0  0  0  0  0  0  0  0
   -3.8900    0.7820   -1.4370 O   0  0  0  0  0  0  0  0  0  0  0  0
    4.8010    2.6170   -4.2620 C   0  0  0  0  0  0  0  0  0  0  0  0
   -6.6230    2.2450    0.5970 O   0  0  0  0  0  0  0  0  0  0  0  0
   -6.6540    0.2300   -0.8060 C   0  0  0  0  0  0  0  0  0  0  0  0
   -4.3690   -0.5670   -1.6220 C   0  0  0  0  0  0  0  0  0  0  0  0
    5.7030    2.4990   -5.2690 O   0  0  0  0  0  0  0  0  0  0  0  0
   -7.6250    3.2650    0.3890 C   0  0  0  0  0  0  0  0  0  0  0  0
   -5.8980   -0.5520   -1.9140 C   0  0  0  0  0  0  0  0  0  0  0  0
   -8.0300    0.3400   -1.1640 O   0  0  0  0  0  0  0  0  0  0  0  0
   -3.5530   -1.2070   -2.7710 C   0  0  0  0  0  0  0  0  0  0  0  0
   -8.4510    3.4710    1.6880 C   0  0  0  0  0  0  0  0  0  0  0  0
   -7.0300    4.5080   -0.0450 O   0  0  0  0  0  0  0  0  0  0  0  0
   -6.3980   -1.8870   -1.9920 O   0  0  0  0  0  0  0  0  0  0  0  0
   -2.1640   -1.2100   -2.4530 O   0  0  0  0  0  0  0  0  0  0  0  0
   -7.6000    4.1740    2.7800 C   0  0  0  0  0  0  0  0  0  0  0  0
   -9.6120    4.2520    1.4000 O   0  0  0  0  0  0  0  0  0  0  0  0
   -6.1740    5.1690    0.9160 C   0  0  0  0  0  0  0  0  0  0  0  0
   -6.9460    5.4720    2.2340 C   0  0  0  0  0  0  0  0  0  0  0  0
   -8.4070    4.4730    3.9180 O   0  0  0  0  0  0  0  0  0  0  0  0
   -5.6160    6.4480    0.2490 C   0  0  0  0  0  0  0  0  0  0  0  0
   -6.0600    6.0140    3.2140 O   0  0  0  0  0  0  0  0  0  0  0  0
   -1.8560    2.8150   -1.8850 H   0  0  0  0  0  0  0  0  0  0  0  0
    3.3570    3.0950    0.3960 H   0  0  0  0  0  0  0  0  0  0  0  0
   -3.0440    3.0410    2.1380 H   0  0  0  0  0  0  0  0  0  0  0  0
    0.0970    2.6640    3.3310 H   0  0  0  0  0  0  0  0  0  0  0  0
    2.4430    4.6890   -3.0630 H   0  0  0  0  0  0  0  0  0  0  0  0
    3.7010    0.9370   -1.5690 H   0  0  0  0  0  0  0  0  0  0  0  0
   -4.3250    0.9960    0.6010 H   0  0  0  0  0  0  0  0  0  0  0  0
    4.0390    4.4980   -4.8590 H   0  0  0  0  0  0  0  0  0  0  0  0
    5.2950    0.7650   -3.3700 H   0  0  0  0  0  0  0  0  0  0  0  0
   -6.1880    2.2470   -1.4770 H   0  0  0  0  0  0  0  0  0  0  0  0
   -6.6000   -0.3390    0.1270 H   0  0  0  0  0  0  0  0  0  0  0  0
   -4.1790   -1.1480   -0.7130 H   0  0  0  0  0  0  0  0  0  0  0  0
    5.6150    3.3150   -5.8040 H   0  0  0  0  0  0  0  0  0  0  0  0
   -8.3190    2.9410   -0.3920 H   0  0  0  0  0  0  0  0  0  0  0  0
   -6.0760   -0.0650   -2.8780 H   0  0  0  0  0  0  0  0  0  0  0  0
   -8.4660    0.7440   -0.3850 H   0  0  0  0  0  0  0  0  0  0  0  0
   -3.8700   -2.2390   -2.9330 H   0  0  0  0  0  0  0  0  0  0  0  0
   -3.6970   -0.6450   -3.6970 H   0  0  0  0  0  0  0  0  0  0  0  0
   -8.7890    2.5000    2.0610 H   0  0  0  0  0  0  0  0  0  0  0  0
   -7.3470   -1.7920   -2.2210 H   0  0  0  0  0  0  0  0  0  0  0  0
   -1.7300   -1.6280   -3.2270 H   0  0  0  0  0  0  0  0  0  0  0  0
   -6.8120    3.4890    3.1090 H   0  0  0  0  0  0  0  0  0  0  0  0
  -10.1190    3.7250    0.7470 H   0  0  0  0  0  0  0  0  0  0  0  0
   -5.3230    4.5250    1.1510 H   0  0  0  0  0  0  0  0  0  0  0  0
   -7.7260    6.2110    2.0350 H   0  0  0  0  0  0  0  0  0  0  0  0
   -8.7460    3.6050    4.2240 H   0  0  0  0  0  0  0  0  0  0  0  0
   -4.9280    6.9630    0.9210 H   0  0  0  0  0  0  0  0  0  0  0  0
   -5.0740    6.1840   -0.6620 H   0  0  0  0  0  0  0  0  0  0  0  0
   -6.4290    7.1280   -0.0140 H   0  0  0  0  0  0  0  0  0  0  0  0
   -6.6260    6.2120    3.9890 H   0  0  0  0  0  0  0  0  0  0  0  0
  1  2  2  0  0  0  0
  1  3  1  0  0  0  0
  1  4  1  0  0  0  0
  2  5  1  0  0  0  0
  2  6  1  0  0  0  0
  3  7  1  0  0  0  0
  4  8  2  0  0  0  0
  4 42  1  0  0  0  0
  5 10  2  0  0  0  0
  5  9  1  0  0  0  0
  6 12  1  0  0  0  0
  6 11  2  0  0  0  0
  7  9  2  0  0  0  0
  7 13  1  0  0  0  0
  8 11  1  0  0  0  0
  8 14  1  0  0  0  0
  9 43  1  0  0  0  0
 11 44  1  0  0  0  0
 12 45  1  0  0  0  0
 13 15  2  0  0  0  0
 13 16  1  0  0  0  0
 14 17  1  0  0  0  0
 15 46  1  0  0  0  0
 15 18  1  0  0  0  0
 16 47  1  0  0  0  0
 16 19  2  0  0  0  0
 17 20  1  0  0  0  0
 17 48  1  0  0  0  0
 17 21  1  0  0  0  0
 18 22  2  0  0  0  0
 18 49  1  0  0  0  0
 19 22  1  0  0  0  0
 19 50  1  0  0  0  0
 20 24  1  0  0  0  0
 20 23  1  0  0  0  0
 20 51  1  0  0  0  0
 21 25  1  0  0  0  0
 22 26  1  0  0  0  0
 23 27  1  0  0  0  0
 24 28  1  0  0  0  0
 24 52  1  0  0  0  0
 24 29  1  0  0  0  0
 25 28  1  0  0  0  0
 25 53  1  0  0  0  0
 25 30  1  0  0  0  0
 26 54  1  0  0  0  0
 27 31  1  0  0  0  0
 27 32  1  0  0  0  0
 27 55  1  0  0  0  0
 28 56  1  0  0  0  0
 28 33  1  0  0  0  0
 29 57  1  0  0  0  0
 30 34  1  0  0  0  0
 30 58  1  0  0  0  0
 30 59  1  0  0  0  0
 31 60  1  0  0  0  0
 31 35  1  0  0  0  0
 31 36  1  0  0  0  0
 32 37  1  0  0  0  0
 33 61  1  0  0  0  0
 34 62  1  0  0  0  0
 35 38  1  0  0  0  0
 35 63  1  0  0  0  0
 35 39  1  0  0  0  0
 36 64  1  0  0  0  0
 37 65  1  0  0  0  0
 37 38  1  0  0  0  0
 37 40  1  0  0  0  0
 38 66  1  0  0  0  0
 38 41  1  0  0  0  0
 39 67  1  0  0  0  0
 40 68  1  0  0  0  0
 40 69  1  0  0  0  0
 40 70  1  0  0  0  0
 41 71  1  0  0  0  0
M  END
