decoy-371
 OpenBabel06062114513D

 36 36  0  0  0  0  0  0  0  0999 V2000
    2.7510    1.1530    0.8600 C   0  0  0  0  0  0  0  0  0  0  0  0
    1.5080    2.3470    0.6130 S   0  0  0  0  0  0  0  0  0  0  0  0
    3.8300    1.0400   -0.0400 C   0  0  0  0  0  0  0  0  0  0  0  0
    2.6780    0.2790    1.9640 C   0  0  0  0  0  0  0  0  0  0  0  0
   -0.0290    1.6530    0.6380 N   0  0  0  0  0  0  0  0  0  0  0  0
    1.6930    3.2540   -0.6810 O   0  0  0  0  0  0  0  0  0  0  0  0
    1.5530    3.3320    1.8610 O   0  0  0  0  0  0  0  0  0  0  0  0
    4.8240    0.0650    0.1630 C   0  0  0  0  0  0  0  0  0  0  0  0
    3.6720   -0.6950    2.1660 C   0  0  0  0  0  0  0  0  0  0  0  0
   -0.4700    0.7750   -0.2440 C   0  0  0  0  0  0  0  0  0  0  0  0
    4.7570   -0.8130    1.2670 C   0  0  0  0  0  0  0  0  0  0  0  0
   -1.7010    0.3220   -0.0760 N   0  0  0  0  0  0  0  0  0  0  0  0
    0.2300    0.3930   -1.1750 O   0  0  0  0  0  0  0  0  0  0  0  0
    5.8150   -1.8310    1.4600 C   0  0  0  0  0  0  0  0  0  0  0  0
   -2.3560   -0.6310   -0.9160 C   0  0  0  0  0  0  0  0  0  0  0  0
   -3.7880   -0.9160   -0.4020 C   0  0  0  0  0  0  0  0  0  0  0  0
   -4.5430   -1.9460   -1.2820 C   0  0  0  0  0  0  0  0  0  0  0  0
   -5.9730   -2.2330   -0.7720 C   0  0  0  0  0  0  0  0  0  0  0  0
    3.8990    1.6630   -0.8480 H   0  0  0  0  0  0  0  0  0  0  0  0
    1.9010    0.3470    2.6250 H   0  0  0  0  0  0  0  0  0  0  0  0
   -0.6280    1.9170    1.3540 H   0  0  0  0  0  0  0  0  0  0  0  0
    5.5990    0.0000   -0.5030 H   0  0  0  0  0  0  0  0  0  0  0  0
    3.5980   -1.3180    2.9740 H   0  0  0  0  0  0  0  0  0  0  0  0
   -2.2010    0.6650    0.6820 H   0  0  0  0  0  0  0  0  0  0  0  0
    5.8500   -2.4940    0.5930 H   0  0  0  0  0  0  0  0  0  0  0  0
    5.6410   -2.4410    2.3490 H   0  0  0  0  0  0  0  0  0  0  0  0
    6.7840   -1.3390    1.5680 H   0  0  0  0  0  0  0  0  0  0  0  0
   -2.4080   -0.2390   -1.9360 H   0  0  0  0  0  0  0  0  0  0  0  0
   -1.7810   -1.5610   -0.9240 H   0  0  0  0  0  0  0  0  0  0  0  0
   -3.7280   -1.2960    0.6220 H   0  0  0  0  0  0  0  0  0  0  0  0
   -4.3520    0.0210   -0.3860 H   0  0  0  0  0  0  0  0  0  0  0  0
   -4.6080   -1.5700   -2.3070 H   0  0  0  0  0  0  0  0  0  0  0  0
   -3.9850   -2.8860   -1.3000 H   0  0  0  0  0  0  0  0  0  0  0  0
   -5.9410   -2.6390    0.2410 H   0  0  0  0  0  0  0  0  0  0  0  0
   -6.4580   -2.9610   -1.4240 H   0  0  0  0  0  0  0  0  0  0  0  0
   -6.5670   -1.3170   -0.7700 H   0  0  0  0  0  0  0  0  0  0  0  0
  1  4  2  0  0  0  0
  1  2  1  0  0  0  0
  1  3  1  0  0  0  0
  2  5  1  0  0  0  0
  2  7  2  0  0  0  0
  2  6  2  0  0  0  0
  3  8  2  0  0  0  0
  3 19  1  0  0  0  0
  4  9  1  0  0  0  0
  4 20  1  0  0  0  0
  5 21  1  0  0  0  0
  5 10  1  0  0  0  0
  8 11  1  0  0  0  0
  8 22  1  0  0  0  0
  9 23  1  0  0  0  0
  9 11  2  0  0  0  0
 10 12  1  0  0  0  0
 10 13  2  0  0  0  0
 11 14  1  0  0  0  0
 12 24  1  0  0  0  0
 12 15  1  0  0  0  0
 14 27  1  0  0  0  0
 14 26  1  0  0  0  0
 14 25  1  0  0  0  0
 15 16  1  0  0  0  0
 15 28  1  0  0  0  0
 15 29  1  0  0  0  0
 16 31  1  0  0  0  0
 16 30  1  0  0  0  0
 16 17  1  0  0  0  0
 17 18  1  0  0  0  0
 17 32  1  0  0  0  0
 17 33  1  0  0  0  0
 18 36  1  0  0  0  0
 18 34  1  0  0  0  0
 18 35  1  0  0  0  0
M  END
