decoy-517
 OpenBabel06062114513D

 45 48  0  0  0  0  0  0  0  0999 V2000
    0.2320    1.2890    0.2310 N   0  0  0  0  0  0  0  0  0  0  0  0
    0.1510   -0.0060   -0.1240 C   0  0  0  0  0  0  0  0  0  0  0  0
    1.4130    2.1100    0.1980 C   0  0  0  0  0  0  0  0  0  0  0  0
   -1.0090    1.6510    0.6290 C   0  0  0  0  0  0  0  0  0  0  0  0
   -1.1670   -0.4150    0.0620 C   0  0  0  0  0  0  0  0  0  0  0  0
    1.0880   -0.8750   -0.5840 N   0  0  0  0  0  0  0  0  0  0  0  0
    1.2280    3.3670    0.8780 O   0  0  0  0  0  0  0  0  0  0  0  0
    1.8950    2.4280   -1.2380 C   0  0  0  0  0  0  0  0  0  0  0  0
   -1.8720    0.6240    0.5290 N   0  0  0  0  0  0  0  0  0  0  0  0
   -1.5270   -1.7400   -0.2390 C   0  0  0  0  0  0  0  0  0  0  0  0
    0.7390   -2.1570   -0.8750 C   0  0  0  0  0  0  0  0  0  0  0  0
    1.5600    4.4520   -0.0010 C   0  0  0  0  0  0  0  0  0  0  0  0
    2.4570    3.8490   -1.1010 C   0  0  0  0  0  0  0  0  0  0  0  0
    2.8630    1.5040   -1.7340 O   0  0  0  0  0  0  0  0  0  0  0  0
   -2.8050   -2.1440   -0.0600 N   0  0  0  0  0  0  0  0  0  0  0  0
   -0.5470   -2.5700   -0.7020 N   0  0  0  0  0  0  0  0  0  0  0  0
    0.2680    5.1210   -0.5370 C   0  0  0  0  0  0  0  0  0  0  0  0
    3.8190    3.8360   -0.6690 O   0  0  0  0  0  0  0  0  0  0  0  0
   -3.2910   -3.4580   -0.3320 C   0  0  0  0  0  0  0  0  0  0  0  0
   -0.5180    5.6160    0.5420 O   0  0  0  0  0  0  0  0  0  0  0  0
   -4.7420   -3.5450   -0.0320 C   0  0  0  0  0  0  0  0  0  0  0  0
   -5.6690   -2.7790   -0.7780 C   0  0  0  0  0  0  0  0  0  0  0  0
   -5.2310   -4.3930    0.9910 C   0  0  0  0  0  0  0  0  0  0  0  0
   -7.0480   -2.8520   -0.5040 C   0  0  0  0  0  0  0  0  0  0  0  0
   -6.6100   -4.4670    1.2640 C   0  0  0  0  0  0  0  0  0  0  0  0
   -7.5180   -3.6950    0.5180 C   0  0  0  0  0  0  0  0  0  0  0  0
    2.2090    1.5900    0.7400 H   0  0  0  0  0  0  0  0  0  0  0  0
   -1.2790    2.5790    0.9630 H   0  0  0  0  0  0  0  0  0  0  0  0
    1.0470    2.4410   -1.9300 H   0  0  0  0  0  0  0  0  0  0  0  0
    1.4410   -2.8100   -1.2220 H   0  0  0  0  0  0  0  0  0  0  0  0
    2.1160    5.2030    0.5680 H   0  0  0  0  0  0  0  0  0  0  0  0
    2.3940    4.4010   -2.0420 H   0  0  0  0  0  0  0  0  0  0  0  0
    2.3850    0.6540   -1.8160 H   0  0  0  0  0  0  0  0  0  0  0  0
   -3.4380   -1.4910    0.2780 H   0  0  0  0  0  0  0  0  0  0  0  0
    0.5260    5.9580   -1.1890 H   0  0  0  0  0  0  0  0  0  0  0  0
   -0.3320    4.4070   -1.1030 H   0  0  0  0  0  0  0  0  0  0  0  0
    4.3170    3.4280   -1.4090 H   0  0  0  0  0  0  0  0  0  0  0  0
   -3.1330   -3.7000   -1.3860 H   0  0  0  0  0  0  0  0  0  0  0  0
   -2.7230   -4.1750    0.2670 H   0  0  0  0  0  0  0  0  0  0  0  0
   -1.3020    6.0220    0.1170 H   0  0  0  0  0  0  0  0  0  0  0  0
   -5.3440   -2.1610   -1.5260 H   0  0  0  0  0  0  0  0  0  0  0  0
   -4.5880   -4.9610    1.5470 H   0  0  0  0  0  0  0  0  0  0  0  0
   -7.7080   -2.2920   -1.0490 H   0  0  0  0  0  0  0  0  0  0  0  0
   -6.9520   -5.0820    2.0060 H   0  0  0  0  0  0  0  0  0  0  0  0
   -8.5200   -3.7480    0.7170 H   0  0  0  0  0  0  0  0  0  0  0  0
  1  4  1  0  0  0  0
  1  2  1  0  0  0  0
  1  3  1  0  0  0  0
  2  5  2  0  0  0  0
  2  6  1  0  0  0  0
  3  8  1  0  0  0  0
  3 27  1  0  0  0  0
  3  7  1  0  0  0  0
  4 28  1  0  0  0  0
  4  9  2  0  0  0  0
  5  9  1  0  0  0  0
  5 10  1  0  0  0  0
  6 11  2  0  0  0  0
  7 12  1  0  0  0  0
  8 13  1  0  0  0  0
  8 14  1  0  0  0  0
  8 29  1  0  0  0  0
 10 15  1  0  0  0  0
 10 16  2  0  0  0  0
 11 16  1  0  0  0  0
 11 30  1  0  0  0  0
 12 13  1  0  0  0  0
 12 31  1  0  0  0  0
 12 17  1  0  0  0  0
 13 32  1  0  0  0  0
 13 18  1  0  0  0  0
 14 33  1  0  0  0  0
 15 34  1  0  0  0  0
 15 19  1  0  0  0  0
 17 20  1  0  0  0  0
 17 35  1  0  0  0  0
 17 36  1  0  0  0  0
 18 37  1  0  0  0  0
 19 21  1  0  0  0  0
 19 39  1  0  0  0  0
 19 38  1  0  0  0  0
 20 40  1  0  0  0  0
 21 23  2  0  0  0  0
 21 22  1  0  0  0  0
 22 24  2  0  0  0  0
 22 41  1  0  0  0  0
 23 25  1  0  0  0  0
 23 42  1  0  0  0  0
 24 26  1  0  0  0  0
 24 43  1  0  0  0  0
 25 44  1  0  0  0  0
 25 26  2  0  0  0  0
 26 45  1  0  0  0  0
M  END
