decoy-323
 OpenBabel06062114513D

 59 59  0  0  0  0  0  0  0  0999 V2000
    0.1680    1.3830    0.2010 C   0  0  0  0  0  0  0  0  0  0  0  0
    0.0940    0.3780   -0.7910 C   0  0  0  0  0  0  0  0  0  0  0  0
    1.4170    1.6740    0.7970 C   0  0  0  0  0  0  0  0  0  0  0  0
   -0.9680    2.0670    0.5860 C   0  0  0  0  0  0  0  0  0  0  0  0
    1.2510   -0.3200   -1.1830 C   0  0  0  0  0  0  0  0  0  0  0  0
    2.5730    0.9740    0.4020 C   0  0  0  0  0  0  0  0  0  0  0  0
   -1.2360    3.4070    0.0790 C   0  0  0  0  0  0  0  0  0  0  0  0
   -1.7460    1.4900    1.3350 O   0  0  0  0  0  0  0  0  0  0  0  0
    2.4900   -0.0230   -0.5870 C   0  0  0  0  0  0  0  0  0  0  0  0
   -2.5610    4.0590    0.5660 C   0  0  0  0  0  0  0  0  0  0  0  0
   -2.7760    5.4820   -0.0140 C   0  0  0  0  0  0  0  0  0  0  0  0
   -4.0990    6.1310    0.4730 C   0  0  0  0  0  0  0  0  0  0  0  0
   -4.3150    7.5540   -0.1070 C   0  0  0  0  0  0  0  0  0  0  0  0
   -5.6380    8.2030    0.3800 C   0  0  0  0  0  0  0  0  0  0  0  0
   -5.8540    9.6260   -0.2000 C   0  0  0  0  0  0  0  0  0  0  0  0
   -7.1770   10.2740    0.2870 C   0  0  0  0  0  0  0  0  0  0  0  0
   -7.3920   11.6970   -0.2930 C   0  0  0  0  0  0  0  0  0  0  0  0
   -8.7150   12.3460    0.1940 C   0  0  0  0  0  0  0  0  0  0  0  0
   -8.9310   13.7690   -0.3860 C   0  0  0  0  0  0  0  0  0  0  0  0
  -10.2540   14.4180    0.1010 C   0  0  0  0  0  0  0  0  0  0  0  0
  -10.4700   15.8410   -0.4790 C   0  0  0  0  0  0  0  0  0  0  0  0
  -11.7930   16.4890    0.0080 C   0  0  0  0  0  0  0  0  0  0  0  0
  -12.0100   17.9050   -0.5670 C   0  0  0  0  0  0  0  0  0  0  0  0
   -0.8000    0.1500   -1.2360 H   0  0  0  0  0  0  0  0  0  0  0  0
    1.4950    2.3940    1.5200 H   0  0  0  0  0  0  0  0  0  0  0  0
    1.1920   -1.0450   -1.9020 H   0  0  0  0  0  0  0  0  0  0  0  0
    3.4730    1.1880    0.8360 H   0  0  0  0  0  0  0  0  0  0  0  0
   -0.4060    4.0570    0.3710 H   0  0  0  0  0  0  0  0  0  0  0  0
   -1.2570    3.3600   -1.0140 H   0  0  0  0  0  0  0  0  0  0  0  0
    3.3300   -0.5310   -0.8720 H   0  0  0  0  0  0  0  0  0  0  0  0
   -3.4000    3.4240    0.2680 H   0  0  0  0  0  0  0  0  0  0  0  0
   -2.5470    4.1190    1.6580 H   0  0  0  0  0  0  0  0  0  0  0  0
   -1.9380    6.1180    0.2830 H   0  0  0  0  0  0  0  0  0  0  0  0
   -2.7900    5.4230   -1.1060 H   0  0  0  0  0  0  0  0  0  0  0  0
   -4.9380    5.4950    0.1760 H   0  0  0  0  0  0  0  0  0  0  0  0
   -4.0860    6.1900    1.5650 H   0  0  0  0  0  0  0  0  0  0  0  0
   -3.4760    8.1900    0.1900 H   0  0  0  0  0  0  0  0  0  0  0  0
   -4.3280    7.4950   -1.1990 H   0  0  0  0  0  0  0  0  0  0  0  0
   -6.4770    7.5660    0.0830 H   0  0  0  0  0  0  0  0  0  0  0  0
   -5.6250    8.2620    1.4720 H   0  0  0  0  0  0  0  0  0  0  0  0
   -5.0150   10.2620    0.0970 H   0  0  0  0  0  0  0  0  0  0  0  0
   -5.8670    9.5670   -1.2920 H   0  0  0  0  0  0  0  0  0  0  0  0
   -8.0150    9.6380   -0.0100 H   0  0  0  0  0  0  0  0  0  0  0  0
   -7.1630   10.3330    1.3790 H   0  0  0  0  0  0  0  0  0  0  0  0
   -6.5540   12.3340    0.0040 H   0  0  0  0  0  0  0  0  0  0  0  0
   -7.4060   11.6390   -1.3850 H   0  0  0  0  0  0  0  0  0  0  0  0
   -9.5540   11.7100   -0.1030 H   0  0  0  0  0  0  0  0  0  0  0  0
   -8.7020   12.4050    1.2860 H   0  0  0  0  0  0  0  0  0  0  0  0
   -8.0930   14.4050   -0.0890 H   0  0  0  0  0  0  0  0  0  0  0  0
   -8.9450   13.7100   -1.4780 H   0  0  0  0  0  0  0  0  0  0  0  0
  -11.0930   13.7820   -0.1960 H   0  0  0  0  0  0  0  0  0  0  0  0
  -10.2410   14.4770    1.1930 H   0  0  0  0  0  0  0  0  0  0  0  0
   -9.6320   16.4780   -0.1820 H   0  0  0  0  0  0  0  0  0  0  0  0
  -10.4840   15.7820   -1.5710 H   0  0  0  0  0  0  0  0  0  0  0  0
  -12.6360   15.8590   -0.2890 H   0  0  0  0  0  0  0  0  0  0  0  0
  -11.7840   16.5540    1.1000 H   0  0  0  0  0  0  0  0  0  0  0  0
  -12.9510   18.3150   -0.1950 H   0  0  0  0  0  0  0  0  0  0  0  0
  -11.1980   18.5690   -0.2640 H   0  0  0  0  0  0  0  0  0  0  0  0
  -12.0530   17.8710   -1.6580 H   0  0  0  0  0  0  0  0  0  0  0  0
  1  4  1  0  0  0  0
  1  3  2  0  0  0  0
  1  2  1  0  0  0  0
  2  5  2  0  0  0  0
  2 24  1  0  0  0  0
  3 25  1  0  0  0  0
  3  6  1  0  0  0  0
  4  8  2  0  0  0  0
  4  7  1  0  0  0  0
  5  9  1  0  0  0  0
  5 26  1  0  0  0  0
  6 27  1  0  0  0  0
  6  9  2  0  0  0  0
  7 28  1  0  0  0  0
  7 10  1  0  0  0  0
  7 29  1  0  0  0  0
  9 30  1  0  0  0  0
 10 32  1  0  0  0  0
 10 11  1  0  0  0  0
 10 31  1  0  0  0  0
 11 33  1  0  0  0  0
 11 12  1  0  0  0  0
 11 34  1  0  0  0  0
 12 36  1  0  0  0  0
 12 13  1  0  0  0  0
 12 35  1  0  0  0  0
 13 37  1  0  0  0  0
 13 14  1  0  0  0  0
 13 38  1  0  0  0  0
 14 40  1  0  0  0  0
 14 15  1  0  0  0  0
 14 39  1  0  0  0  0
 15 41  1  0  0  0  0
 15 16  1  0  0  0  0
 15 42  1  0  0  0  0
 16 44  1  0  0  0  0
 16 17  1  0  0  0  0
 16 43  1  0  0  0  0
 17 45  1  0  0  0  0
 17 18  1  0  0  0  0
 17 46  1  0  0  0  0
 18 48  1  0  0  0  0
 18 19  1  0  0  0  0
 18 47  1  0  0  0  0
 19 49  1  0  0  0  0
 19 20  1  0  0  0  0
 19 50  1  0  0  0  0
 20 52  1  0  0  0  0
 20 21  1  0  0  0  0
 20 51  1  0  0  0  0
 21 53  1  0  0  0  0
 21 22  1  0  0  0  0
 21 54  1  0  0  0  0
 22 56  1  0  0  0  0
 22 23  1  0  0  0  0
 22 55  1  0  0  0  0
 23 58  1  0  0  0  0
 23 57  1  0  0  0  0
 23 59  1  0  0  0  0
M  END
