decoy-365
 OpenBabel06062114513D

 35 37  0  0  0  0  0  0  0  0999 V2000
    0.1210    1.1150   -0.5290 C   0  0  0  0  0  0  0  0  0  0  0  0
    0.1260   -0.2470   -0.1260 C   0  0  0  0  0  0  0  0  0  0  0  0
    1.2930    1.8410   -0.6060 O   0  0  0  0  0  0  0  0  0  0  0  0
   -1.0850    1.7560   -0.8680 C   0  0  0  0  0  0  0  0  0  0  0  0
    1.3810   -0.7990    0.1650 C   0  0  0  0  0  0  0  0  0  0  0  0
   -1.1100   -0.9420   -0.0470 C   0  0  0  0  0  0  0  0  0  0  0  0
    2.4270    1.2870   -0.1120 C   0  0  0  0  0  0  0  0  0  0  0  0
   -2.3060    1.0600   -0.7910 C   0  0  0  0  0  0  0  0  0  0  0  0
    2.4960   -0.0100    0.2650 C   0  0  0  0  0  0  0  0  0  0  0  0
    1.5310   -2.0140    0.1560 O   0  0  0  0  0  0  0  0  0  0  0  0
   -2.3100   -0.2910   -0.3930 C   0  0  0  0  0  0  0  0  0  0  0  0
   -1.2040   -2.2330    0.3650 O   0  0  0  0  0  0  0  0  0  0  0  0
    3.5170    2.1360   -0.0430 C   0  0  0  0  0  0  0  0  0  0  0  0
   -3.4740    1.6760   -1.1500 O   0  0  0  0  0  0  0  0  0  0  0  0
    3.6440   -0.5120    0.7300 O   0  0  0  0  0  0  0  0  0  0  0  0
    3.9070    2.7060    1.1900 C   0  0  0  0  0  0  0  0  0  0  0  0
    4.2420    2.4560   -1.2120 C   0  0  0  0  0  0  0  0  0  0  0  0
   -4.1310    2.3270   -0.0500 C   0  0  0  0  0  0  0  0  0  0  0  0
    5.0130    3.5770    1.2570 C   0  0  0  0  0  0  0  0  0  0  0  0
    5.3450    3.3260   -1.1460 C   0  0  0  0  0  0  0  0  0  0  0  0
    5.7350    3.8880    0.0850 C   0  0  0  0  0  0  0  0  0  0  0  0
    5.3830    4.1190    2.4460 O   0  0  0  0  0  0  0  0  0  0  0  0
    6.8050    4.7230    0.1100 O   0  0  0  0  0  0  0  0  0  0  0  0
   -1.0760    2.7330   -1.1690 H   0  0  0  0  0  0  0  0  0  0  0  0
   -3.1960   -0.7990   -0.3450 H   0  0  0  0  0  0  0  0  0  0  0  0
   -0.4860   -2.3550    1.0200 H   0  0  0  0  0  0  0  0  0  0  0  0
    3.4310   -1.3870    1.1140 H   0  0  0  0  0  0  0  0  0  0  0  0
    3.3870    2.4880    2.0450 H   0  0  0  0  0  0  0  0  0  0  0  0
    3.9740    2.0590   -2.1170 H   0  0  0  0  0  0  0  0  0  0  0  0
   -5.0460    2.7870   -0.4250 H   0  0  0  0  0  0  0  0  0  0  0  0
   -4.4050    1.6120    0.7300 H   0  0  0  0  0  0  0  0  0  0  0  0
   -3.5050    3.1130    0.3790 H   0  0  0  0  0  0  0  0  0  0  0  0
    5.8650    3.5500   -1.9980 H   0  0  0  0  0  0  0  0  0  0  0  0
    4.7510    3.7700    3.1090 H   0  0  0  0  0  0  0  0  0  0  0  0
    6.9110    5.0010    1.0440 H   0  0  0  0  0  0  0  0  0  0  0  0
  1  2  2  0  0  0  0
  1  3  1  0  0  0  0
  1  4  1  0  0  0  0
  2  6  1  0  0  0  0
  2  5  1  0  0  0  0
  3  7  1  0  0  0  0
  4  8  2  0  0  0  0
  4 24  1  0  0  0  0
  5  9  1  0  0  0  0
  5 10  2  0  0  0  0
  6 12  1  0  0  0  0
  6 11  2  0  0  0  0
  7 13  1  0  0  0  0
  7  9  2  0  0  0  0
  8 11  1  0  0  0  0
  8 14  1  0  0  0  0
  9 15  1  0  0  0  0
 11 25  1  0  0  0  0
 12 26  1  0  0  0  0
 13 16  2  0  0  0  0
 13 17  1  0  0  0  0
 14 18  1  0  0  0  0
 15 27  1  0  0  0  0
 16 19  1  0  0  0  0
 16 28  1  0  0  0  0
 17 20  2  0  0  0  0
 17 29  1  0  0  0  0
 18 32  1  0  0  0  0
 18 31  1  0  0  0  0
 18 30  1  0  0  0  0
 19 22  1  0  0  0  0
 19 21  2  0  0  0  0
 20 21  1  0  0  0  0
 20 33  1  0  0  0  0
 21 23  1  0  0  0  0
 22 34  1  0  0  0  0
 23 35  1  0  0  0  0
M  END
