decoy-979
 OpenBabel06062114513D

 57 56  0  0  0  0  0  0  0  0999 V2000
   -0.0490    1.4380   -0.0640 C   0  0  0  0  0  0  0  0  0  0  0  0
   -0.0700   -0.1130   -0.0200 C   0  0  0  0  0  0  0  0  0  0  0  0
    1.3870    2.0190    0.0240 C   0  0  0  0  0  0  0  0  0  0  0  0
   -1.5070   -0.6920   -0.1100 C   0  0  0  0  0  0  0  0  0  0  0  0
    1.4080    3.5700   -0.0190 C   0  0  0  0  0  0  0  0  0  0  0  0
   -1.5060   -2.1470   -0.0830 C   0  0  0  0  0  0  0  0  0  0  0  0
    2.8440    4.1500    0.0690 C   0  0  0  0  0  0  0  0  0  0  0  0
   -2.0900   -2.8800    0.8810 C   0  0  0  0  0  0  0  0  0  0  0  0
    2.8650    5.7010    0.0260 C   0  0  0  0  0  0  0  0  0  0  0  0
   -2.0900   -4.3340    0.9050 C   0  0  0  0  0  0  0  0  0  0  0  0
    4.3010    6.2820    0.1140 C   0  0  0  0  0  0  0  0  0  0  0  0
   -1.3740   -4.8290    2.0700 C   0  0  0  0  0  0  0  0  0  0  0  0
    4.3220    7.8330    0.0710 C   0  0  0  0  0  0  0  0  0  0  0  0
   -1.9450   -5.5460    3.0530 C   0  0  0  0  0  0  0  0  0  0  0  0
    5.6660    8.4370    0.1520 C   0  0  0  0  0  0  0  0  0  0  0  0
   -1.2290   -6.0440    4.2170 C   0  0  0  0  0  0  0  0  0  0  0  0
    5.7900    9.7830    0.1230 O   0  0  0  0  0  0  0  0  0  0  0  0
    6.7940    7.6980    0.2560 O   0  0  0  0  0  0  0  0  0  0  0  0
   -1.7800   -5.4390    5.5360 C   0  0  0  0  0  0  0  0  0  0  0  0
   -1.0390   -5.9700    6.7910 C   0  0  0  0  0  0  0  0  0  0  0  0
   -1.5900   -5.3660    8.1100 C   0  0  0  0  0  0  0  0  0  0  0  0
   -0.8540   -5.8930    9.3610 C   0  0  0  0  0  0  0  0  0  0  0  0
   -0.5120    1.7740   -0.9960 H   0  0  0  0  0  0  0  0  0  0  0  0
   -0.6410    1.8260    0.7700 H   0  0  0  0  0  0  0  0  0  0  0  0
    0.5260   -0.4980   -0.8530 H   0  0  0  0  0  0  0  0  0  0  0  0
    0.3910   -0.4480    0.9130 H   0  0  0  0  0  0  0  0  0  0  0  0
    1.8500    1.6820    0.9560 H   0  0  0  0  0  0  0  0  0  0  0  0
    1.9790    1.6320   -0.8100 H   0  0  0  0  0  0  0  0  0  0  0  0
   -2.1060   -0.2790    0.7070 H   0  0  0  0  0  0  0  0  0  0  0  0
   -1.9680   -0.3730   -1.0490 H   0  0  0  0  0  0  0  0  0  0  0  0
    0.9450    3.9060   -0.9510 H   0  0  0  0  0  0  0  0  0  0  0  0
    0.8160    3.9570    0.8160 H   0  0  0  0  0  0  0  0  0  0  0  0
   -1.0410   -2.6150   -0.8270 H   0  0  0  0  0  0  0  0  0  0  0  0
    3.3070    3.8140    1.0010 H   0  0  0  0  0  0  0  0  0  0  0  0
    3.4360    3.7630   -0.7650 H   0  0  0  0  0  0  0  0  0  0  0  0
   -2.5570   -2.4120    1.6240 H   0  0  0  0  0  0  0  0  0  0  0  0
    2.4020    6.0380   -0.9060 H   0  0  0  0  0  0  0  0  0  0  0  0
    2.2730    6.0880    0.8610 H   0  0  0  0  0  0  0  0  0  0  0  0
   -3.1320   -4.6680    0.8970 H   0  0  0  0  0  0  0  0  0  0  0  0
   -1.6140   -4.7560    0.0160 H   0  0  0  0  0  0  0  0  0  0  0  0
    4.7640    5.9450    1.0470 H   0  0  0  0  0  0  0  0  0  0  0  0
    4.8930    5.8950   -0.7210 H   0  0  0  0  0  0  0  0  0  0  0  0
   -0.4020   -4.6230    2.1290 H   0  0  0  0  0  0  0  0  0  0  0  0
    3.8590    8.1700   -0.8600 H   0  0  0  0  0  0  0  0  0  0  0  0
    3.7300    8.2200    0.9050 H   0  0  0  0  0  0  0  0  0  0  0  0
   -2.9160   -5.7540    2.9940 H   0  0  0  0  0  0  0  0  0  0  0  0
   -1.3420   -7.1310    4.2430 H   0  0  0  0  0  0  0  0  0  0  0  0
   -0.1590   -5.8270    4.1500 H   0  0  0  0  0  0  0  0  0  0  0  0
   -1.6780   -4.3500    5.4980 H   0  0  0  0  0  0  0  0  0  0  0  0
   -2.8440   -5.6790    5.6260 H   0  0  0  0  0  0  0  0  0  0  0  0
   -1.1380   -7.0590    6.8300 H   0  0  0  0  0  0  0  0  0  0  0  0
    0.0240   -5.7280    6.7070 H   0  0  0  0  0  0  0  0  0  0  0  0
   -1.4910   -4.2780    8.0800 H   0  0  0  0  0  0  0  0  0  0  0  0
   -2.6520   -5.6090    8.2030 H   0  0  0  0  0  0  0  0  0  0  0  0
   -1.2790   -5.4390   10.2580 H   0  0  0  0  0  0  0  0  0  0  0  0
   -0.9590   -6.9770    9.4360 H   0  0  0  0  0  0  0  0  0  0  0  0
    0.2080   -5.6410    9.3130 H   0  0  0  0  0  0  0  0  0  0  0  0
  1  2  1  0  0  0  0
  1  3  1  0  0  0  0
  1 24  1  0  0  0  0
  1 23  1  0  0  0  0
  2 26  1  0  0  0  0
  2  4  1  0  0  0  0
  2 25  1  0  0  0  0
  3 27  1  0  0  0  0
  3  5  1  0  0  0  0
  3 28  1  0  0  0  0
  4  6  1  0  0  0  0
  4 29  1  0  0  0  0
  4 30  1  0  0  0  0
  5  7  1  0  0  0  0
  5 32  1  0  0  0  0
  5 31  1  0  0  0  0
  6  8  2  0  0  0  0
  6 33  1  0  0  0  0
  7 34  1  0  0  0  0
  7  9  1  0  0  0  0
  7 35  1  0  0  0  0
  8 10  1  0  0  0  0
  8 36  1  0  0  0  0
  9 11  1  0  0  0  0
  9 38  1  0  0  0  0
  9 37  1  0  0  0  0
 10 12  1  0  0  0  0
 10 39  1  0  0  0  0
 10 40  1  0  0  0  0
 11 41  1  0  0  0  0
 11 13  1  0  0  0  0
 11 42  1  0  0  0  0
 12 43  1  0  0  0  0
 12 14  2  0  0  0  0
 13 15  1  0  0  0  0
 13 45  1  0  0  0  0
 13 44  1  0  0  0  0
 14 16  1  0  0  0  0
 14 46  1  0  0  0  0
 15 18  1  0  0  0  0
 15 17  2  0  0  0  0
 16 47  1  0  0  0  0
 16 19  1  0  0  0  0
 16 48  1  0  0  0  0
 19 50  1  0  0  0  0
 19 20  1  0  0  0  0
 19 49  1  0  0  0  0
 20 51  1  0  0  0  0
 20 21  1  0  0  0  0
 20 52  1  0  0  0  0
 21 54  1  0  0  0  0
 21 22  1  0  0  0  0
 21 53  1  0  0  0  0
 22 56  1  0  0  0  0
 22 55  1  0  0  0  0
 22 57  1  0  0  0  0
M  END
