decoy-123
 OpenBabel06062114503D

 31 33  0  0  0  0  0  0  0  0999 V2000
    0.0050   -0.3830    0.3270 C   0  0  0  0  0  0  0  0  0  0  0  0
    1.0620   -1.4530    0.2180 C   0  0  0  0  0  0  0  0  0  0  0  0
   -1.3420   -0.9800    0.6500 C   0  0  0  0  0  0  0  0  0  0  0  0
    0.2660    0.6070    1.3270 N   0  0  0  0  0  0  0  0  0  0  0  0
    0.0890    0.5110   -0.8260 C   0  0  0  0  0  0  0  0  0  0  0  0
    0.9200   -2.4900   -0.7420 C   0  0  0  0  0  0  0  0  0  0  0  0
    2.2080   -1.4860    1.0550 C   0  0  0  0  0  0  0  0  0  0  0  0
   -1.4990   -1.7170    1.8540 C   0  0  0  0  0  0  0  0  0  0  0  0
   -2.4810   -0.8480   -0.1880 C   0  0  0  0  0  0  0  0  0  0  0  0
    0.4500    1.8040    0.8290 C   0  0  0  0  0  0  0  0  0  0  0  0
    0.3450    1.7440   -0.4680 N   0  0  0  0  0  0  0  0  0  0  0  0
   -0.0360    0.1930   -2.0010 O   0  0  0  0  0  0  0  0  0  0  0  0
    1.8810   -3.5090   -0.8650 C   0  0  0  0  0  0  0  0  0  0  0  0
    3.1710   -2.5050    0.9330 C   0  0  0  0  0  0  0  0  0  0  0  0
   -2.7300   -2.3000    2.2030 C   0  0  0  0  0  0  0  0  0  0  0  0
   -3.7150   -1.4290    0.1600 C   0  0  0  0  0  0  0  0  0  0  0  0
    0.6910    2.8100    1.4760 O   0  0  0  0  0  0  0  0  0  0  0  0
    3.0080   -3.5170   -0.0270 C   0  0  0  0  0  0  0  0  0  0  0  0
   -3.8400   -2.1560    1.3550 C   0  0  0  0  0  0  0  0  0  0  0  0
    0.3100    0.4120    2.2770 H   0  0  0  0  0  0  0  0  0  0  0  0
    0.1060   -2.5110   -1.3600 H   0  0  0  0  0  0  0  0  0  0  0  0
    2.3580   -0.7680    1.7660 H   0  0  0  0  0  0  0  0  0  0  0  0
   -0.7060   -1.8370    2.4900 H   0  0  0  0  0  0  0  0  0  0  0  0
   -2.4320   -0.3250   -1.0630 H   0  0  0  0  0  0  0  0  0  0  0  0
    0.4470    2.4950   -1.0740 H   0  0  0  0  0  0  0  0  0  0  0  0
    1.7590   -4.2460   -1.5640 H   0  0  0  0  0  0  0  0  0  0  0  0
    3.9900   -2.5100    1.5450 H   0  0  0  0  0  0  0  0  0  0  0  0
   -2.8180   -2.8270    3.0750 H   0  0  0  0  0  0  0  0  0  0  0  0
   -4.5230   -1.3220   -0.4580 H   0  0  0  0  0  0  0  0  0  0  0  0
    3.7080   -4.2570   -0.1160 H   0  0  0  0  0  0  0  0  0  0  0  0
   -4.7360   -2.5780    1.6070 H   0  0  0  0  0  0  0  0  0  0  0  0
  1  3  1  0  0  0  0
  1  4  1  0  0  0  0
  1  2  1  0  0  0  0
  1  5  1  0  0  0  0
  2  7  2  0  0  0  0
  2  6  1  0  0  0  0
  3  8  2  0  0  0  0
  3  9  1  0  0  0  0
  4 20  1  0  0  0  0
  4 10  1  0  0  0  0
  5 11  1  0  0  0  0
  5 12  2  0  0  0  0
  6 13  2  0  0  0  0
  6 21  1  0  0  0  0
  7 22  1  0  0  0  0
  7 14  1  0  0  0  0
  8 15  1  0  0  0  0
  8 23  1  0  0  0  0
  9 16  2  0  0  0  0
  9 24  1  0  0  0  0
 10 17  2  0  0  0  0
 10 11  1  0  0  0  0
 11 25  1  0  0  0  0
 13 18  1  0  0  0  0
 13 26  1  0  0  0  0
 14 27  1  0  0  0  0
 14 18  2  0  0  0  0
 15 28  1  0  0  0  0
 15 19  2  0  0  0  0
 16 19  1  0  0  0  0
 16 29  1  0  0  0  0
 18 30  1  0  0  0  0
 19 31  1  0  0  0  0
M  END
