decoy-910
 OpenBabel06062114513D

 48 50  0  0  0  0  0  0  0  0999 V2000
    0.0920    1.7130   -0.4340 C   0  0  0  0  0  0  0  0  0  0  0  0
    0.0640    0.3590   -0.1880 C   0  0  0  0  0  0  0  0  0  0  0  0
    0.9040    2.5110    0.3000 C   0  0  0  0  0  0  0  0  0  0  0  0
   -0.8160    2.2640   -1.4550 C   0  0  0  0  0  0  0  0  0  0  0  0
   -1.0890   -0.3750   -0.3440 C   0  0  0  0  0  0  0  0  0  0  0  0
    1.1290   -0.2450   -0.1100 O   0  0  0  0  0  0  0  0  0  0  0  0
    1.0630    3.8760    0.1310 C   0  0  0  0  0  0  0  0  0  0  0  0
   -1.5390    1.1760   -2.3070 C   0  0  0  0  0  0  0  0  0  0  0  0
   -1.3430   -1.4080    0.4930 C   0  0  0  0  0  0  0  0  0  0  0  0
   -2.0560    0.0360   -1.3770 C   0  0  0  0  0  0  0  0  0  0  0  0
    0.0600    4.7830    0.5390 C   0  0  0  0  0  0  0  0  0  0  0  0
    2.2580    4.3800   -0.4270 C   0  0  0  0  0  0  0  0  0  0  0  0
   -2.6630    1.7710   -3.1950 C   0  0  0  0  0  0  0  0  0  0  0  0
   -2.4550   -2.2260    0.4300 C   0  0  0  0  0  0  0  0  0  0  0  0
    0.2410    6.1690    0.3730 C   0  0  0  0  0  0  0  0  0  0  0  0
    2.4390    5.7660   -0.5900 C   0  0  0  0  0  0  0  0  0  0  0  0
   -2.4240   -3.4070   -0.3420 C   0  0  0  0  0  0  0  0  0  0  0  0
   -3.6260   -1.9020    1.1490 C   0  0  0  0  0  0  0  0  0  0  0  0
    1.4310    6.6760   -0.1910 C   0  0  0  0  0  0  0  0  0  0  0  0
   -3.5520   -4.2450   -0.4050 C   0  0  0  0  0  0  0  0  0  0  0  0
   -4.7530   -2.7420    1.0840 C   0  0  0  0  0  0  0  0  0  0  0  0
    1.5440    8.0190   -0.3110 N   0  0  0  0  0  0  0  0  0  0  0  0
   -4.7280   -3.9230    0.3050 C   0  0  0  0  0  0  0  0  0  0  0  0
    2.4740    8.6360   -0.7520 N   0  0  0  0  0  0  0  0  0  0  0  0
   -5.7740   -4.7740    0.1980 N   0  0  0  0  0  0  0  0  0  0  0  0
    3.3760    9.2310   -1.1780 N   0  0  0  0  0  0  0  0  0  0  0  0
   -6.8500   -4.6750    0.7200 N   0  0  0  0  0  0  0  0  0  0  0  0
   -7.8920   -4.5820    1.2240 N   0  0  0  0  0  0  0  0  0  0  0  0
    1.4840    2.1000    0.9990 H   0  0  0  0  0  0  0  0  0  0  0  0
   -1.5690    2.8750   -0.9480 H   0  0  0  0  0  0  0  0  0  0  0  0
   -0.2540    2.9080   -2.1380 H   0  0  0  0  0  0  0  0  0  0  0  0
   -0.7930    0.7370   -2.9820 H   0  0  0  0  0  0  0  0  0  0  0  0
   -0.6880   -1.6300    1.2100 H   0  0  0  0  0  0  0  0  0  0  0  0
   -2.3080   -0.8230   -2.0060 H   0  0  0  0  0  0  0  0  0  0  0  0
   -2.9690    0.3700   -0.8760 H   0  0  0  0  0  0  0  0  0  0  0  0
   -0.8090    4.4430    0.9600 H   0  0  0  0  0  0  0  0  0  0  0  0
    3.0040    3.7440   -0.7220 H   0  0  0  0  0  0  0  0  0  0  0  0
   -2.2510    2.5240   -3.8690 H   0  0  0  0  0  0  0  0  0  0  0  0
   -3.1240    0.9850   -3.7970 H   0  0  0  0  0  0  0  0  0  0  0  0
   -3.4350    2.2370   -2.5790 H   0  0  0  0  0  0  0  0  0  0  0  0
   -0.5010    6.8070    0.6720 H   0  0  0  0  0  0  0  0  0  0  0  0
    3.3130    6.1070   -0.9990 H   0  0  0  0  0  0  0  0  0  0  0  0
   -1.5830   -3.6640   -0.8670 H   0  0  0  0  0  0  0  0  0  0  0  0
   -3.6690   -1.0530    1.7190 H   0  0  0  0  0  0  0  0  0  0  0  0
   -3.5090   -5.0940   -0.9740 H   0  0  0  0  0  0  0  0  0  0  0  0
   -5.5920   -2.4860    1.6090 H   0  0  0  0  0  0  0  0  0  0  0  0
    3.3580   10.1670   -1.1820 H   0  0  0  0  0  0  0  0  0  0  0  0
   -8.0810   -3.8520    1.7760 H   0  0  0  0  0  0  0  0  0  0  0  0
  1  2  1  0  0  0  0
  1  3  2  0  0  0  0
  1  4  1  0  0  0  0
  2  6  2  0  0  0  0
  2  5  1  0  0  0  0
  3 29  1  0  0  0  0
  3  7  1  0  0  0  0
  4 30  1  0  0  0  0
  4  8  1  0  0  0  0
  4 31  1  0  0  0  0
  5  9  2  0  0  0  0
  5 10  1  0  0  0  0
  7 11  2  0  0  0  0
  7 12  1  0  0  0  0
  8 32  1  0  0  0  0
  8 10  1  0  0  0  0
  8 13  1  0  0  0  0
  9 33  1  0  0  0  0
  9 14  1  0  0  0  0
 10 35  1  0  0  0  0
 10 34  1  0  0  0  0
 11 36  1  0  0  0  0
 11 15  1  0  0  0  0
 12 16  2  0  0  0  0
 12 37  1  0  0  0  0
 13 40  1  0  0  0  0
 13 38  1  0  0  0  0
 13 39  1  0  0  0  0
 14 18  2  0  0  0  0
 14 17  1  0  0  0  0
 15 41  1  0  0  0  0
 15 19  2  0  0  0  0
 16 19  1  0  0  0  0
 16 42  1  0  0  0  0
 17 20  2  0  0  0  0
 17 43  1  0  0  0  0
 18 44  1  0  0  0  0
 18 21  1  0  0  0  0
 19 22  1  0  0  0  0
 20 23  1  0  0  0  0
 20 45  1  0  0  0  0
 21 46  1  0  0  0  0
 21 23  2  0  0  0  0
 22 24  1  0  0  0  0
 23 25  1  0  0  0  0
 24 26  1  0  0  0  0
 25 27  1  0  0  0  0
 26 47  1  0  0  0  0
 27 28  1  0  0  0  0
 28 48  1  0  0  0  0
M  END
