decoy-688
 OpenBabel06062114513D

 54 58  0  0  0  0  0  0  0  0999 V2000
   -0.0660    1.7530    0.1550 C   0  0  0  0  0  0  0  0  0  0  0  0
   -0.2010    0.2060   -0.0780 C   0  0  0  0  0  0  0  0  0  0  0  0
    1.4830    1.9300    0.1510 C   0  0  0  0  0  0  0  0  0  0  0  0
   -0.8800    2.4740   -0.9390 C   0  0  0  0  0  0  0  0  0  0  0  0
   -0.8540    2.3120    1.3880 C   0  0  0  0  0  0  0  0  0  0  0  0
   -1.6720   -0.3030    0.0990 C   0  0  0  0  0  0  0  0  0  0  0  0
    0.9030   -0.4110    0.8100 C   0  0  0  0  0  0  0  0  0  0  0  0
    1.9950    0.6840    0.9320 C   0  0  0  0  0  0  0  0  0  0  0  0
    2.0150    3.2130    0.6180 C   0  0  0  0  0  0  0  0  0  0  0  0
   -2.3030    2.1400   -0.4220 C   0  0  0  0  0  0  0  0  0  0  0  0
   -2.2360    2.3950    0.9940 O   0  0  0  0  0  0  0  0  0  0  0  0
   -0.7120    1.5570    2.5870 O   0  0  0  0  0  0  0  0  0  0  0  0
   -2.6670    0.6280   -0.6920 C   0  0  0  0  0  0  0  0  0  0  0  0
   -1.8850   -1.7760   -0.3390 C   0  0  0  0  0  0  0  0  0  0  0  0
    2.5610    4.2250   -0.2680 C   0  0  0  0  0  0  0  0  0  0  0  0
    2.0140    3.4700    1.8160 O   0  0  0  0  0  0  0  0  0  0  0  0
   -4.1890    0.1990   -0.5170 C   0  0  0  0  0  0  0  0  0  0  0  0
   -3.3600   -2.1930   -0.1160 C   0  0  0  0  0  0  0  0  0  0  0  0
    1.8010    5.4240   -0.1590 O   0  0  0  0  0  0  0  0  0  0  0  0
   -4.3190   -1.2740   -0.7570 C   0  0  0  0  0  0  0  0  0  0  0  0
   -5.0600    0.9970   -1.5690 C   0  0  0  0  0  0  0  0  0  0  0  0
   -4.7380    0.5190    0.9180 C   0  0  0  0  0  0  0  0  0  0  0  0
   -5.3520   -1.8000   -1.4580 C   0  0  0  0  0  0  0  0  0  0  0  0
   -6.4560    0.3720   -1.8170 C   0  0  0  0  0  0  0  0  0  0  0  0
   -6.3740   -1.0670   -1.9770 C   0  0  0  0  0  0  0  0  0  0  0  0
   -7.3600   -1.6490   -2.4100 O   0  0  0  0  0  0  0  0  0  0  0  0
    0.0840   -0.0140   -1.1150 H   0  0  0  0  0  0  0  0  0  0  0  0
   -1.9050   -0.2560    1.1640 H   0  0  0  0  0  0  0  0  0  0  0  0
   -2.4390    0.4620   -1.7520 H   0  0  0  0  0  0  0  0  0  0  0  0
    1.8070    1.7910   -0.8870 H   0  0  0  0  0  0  0  0  0  0  0  0
   -0.7010    3.5550   -0.9320 H   0  0  0  0  0  0  0  0  0  0  0  0
   -0.6910    2.1000   -1.9490 H   0  0  0  0  0  0  0  0  0  0  0  0
   -0.5420    3.3340    1.6140 H   0  0  0  0  0  0  0  0  0  0  0  0
    0.5100   -0.6690    1.7970 H   0  0  0  0  0  0  0  0  0  0  0  0
    1.3060   -1.3200    0.3550 H   0  0  0  0  0  0  0  0  0  0  0  0
    2.9440    0.3360    0.5140 H   0  0  0  0  0  0  0  0  0  0  0  0
    2.1550    0.9110    1.9900 H   0  0  0  0  0  0  0  0  0  0  0  0
   -3.0220    2.8150   -0.8880 H   0  0  0  0  0  0  0  0  0  0  0  0
   -1.2680    2.0240    3.2450 H   0  0  0  0  0  0  0  0  0  0  0  0
   -1.6260   -1.8980   -1.3950 H   0  0  0  0  0  0  0  0  0  0  0  0
   -1.2360   -2.4330    0.2450 H   0  0  0  0  0  0  0  0  0  0  0  0
    3.5960    4.4330    0.0080 H   0  0  0  0  0  0  0  0  0  0  0  0
    2.5450    3.9110   -1.3140 H   0  0  0  0  0  0  0  0  0  0  0  0
   -3.4620   -3.2240   -0.4690 H   0  0  0  0  0  0  0  0  0  0  0  0
   -3.5630   -2.2120    0.9570 H   0  0  0  0  0  0  0  0  0  0  0  0
    2.2380    6.0550   -0.7690 H   0  0  0  0  0  0  0  0  0  0  0  0
   -5.2000    2.0360   -1.2630 H   0  0  0  0  0  0  0  0  0  0  0  0
   -4.5460    1.0150   -2.5360 H   0  0  0  0  0  0  0  0  0  0  0  0
   -4.1300    0.0650    1.6990 H   0  0  0  0  0  0  0  0  0  0  0  0
   -4.7590    1.5950    1.0980 H   0  0  0  0  0  0  0  0  0  0  0  0
   -5.7560    0.1450    1.0380 H   0  0  0  0  0  0  0  0  0  0  0  0
   -5.4000   -2.7880   -1.5780 H   0  0  0  0  0  0  0  0  0  0  0  0
   -7.1230    0.5990   -0.9820 H   0  0  0  0  0  0  0  0  0  0  0  0
   -6.8840    0.8200   -2.7190 H   0  0  0  0  0  0  0  0  0  0  0  0
  1  2  1  0  0  0  0
  1  3  1  0  0  0  0
  1  4  1  0  0  0  0
  1  5  1  0  0  0  0
  2  6  1  0  0  0  0
  2  7  1  0  0  0  0
  2 27  1  0  0  0  0
  3  9  1  0  0  0  0
  3  8  1  0  0  0  0
  3 30  1  0  0  0  0
  4 31  1  0  0  0  0
  4 10  1  0  0  0  0
  4 32  1  0  0  0  0
  5 33  1  0  0  0  0
  5 12  1  0  0  0  0
  5 11  1  0  0  0  0
  6 13  1  0  0  0  0
  6 28  1  0  0  0  0
  6 14  1  0  0  0  0
  7  8  1  0  0  0  0
  7 34  1  0  0  0  0
  7 35  1  0  0  0  0
  8 37  1  0  0  0  0
  8 36  1  0  0  0  0
  9 16  2  0  0  0  0
  9 15  1  0  0  0  0
 10 13  1  0  0  0  0
 10 11  1  0  0  0  0
 10 38  1  0  0  0  0
 12 39  1  0  0  0  0
 13 17  1  0  0  0  0
 13 29  1  0  0  0  0
 14 18  1  0  0  0  0
 14 41  1  0  0  0  0
 14 40  1  0  0  0  0
 15 19  1  0  0  0  0
 15 42  1  0  0  0  0
 15 43  1  0  0  0  0
 17 22  1  0  0  0  0
 17 20  1  0  0  0  0
 17 21  1  0  0  0  0
 18 45  1  0  0  0  0
 18 20  1  0  0  0  0
 18 44  1  0  0  0  0
 19 46  1  0  0  0  0
 20 23  2  0  0  0  0
 21 47  1  0  0  0  0
 21 24  1  0  0  0  0
 21 48  1  0  0  0  0
 22 51  1  0  0  0  0
 22 50  1  0  0  0  0
 22 49  1  0  0  0  0
 23 25  1  0  0  0  0
 23 52  1  0  0  0  0
 24 53  1  0  0  0  0
 24 25  1  0  0  0  0
 24 54  1  0  0  0  0
 25 26  2  0  0  0  0
M  END
