decoy-494
 OpenBabel06062114513D

 35 36  0  0  0  0  0  0  0  0999 V2000
    0.0530    1.4020   -0.0550 C   0  0  0  0  0  0  0  0  0  0  0  0
    0.0340   -0.1270   -0.1690 C   0  0  0  0  0  0  0  0  0  0  0  0
    1.4690    1.9940    0.0050 C   0  0  0  0  0  0  0  0  0  0  0  0
   -0.5820    2.0290   -1.2040 N   0  0  0  0  0  0  0  0  0  0  0  0
   -0.8570    1.7910    1.2080 C   0  0  0  0  0  0  0  0  0  0  0  0
   -0.7070   -0.8240   -1.1650 C   0  0  0  0  0  0  0  0  0  0  0  0
    0.6900   -0.9330    0.8020 C   0  0  0  0  0  0  0  0  0  0  0  0
    2.6410    1.2460   -0.3090 C   0  0  0  0  0  0  0  0  0  0  0  0
    1.6770    3.3780    0.2570 C   0  0  0  0  0  0  0  0  0  0  0  0
   -0.1800    2.0770   -2.4710 C   0  0  0  0  0  0  0  0  0  0  0  0
   -2.3400    0.8390    1.3670 Cl  0  0  0  0  0  0  0  0  0  0  0  0
   -0.0380    1.6510    2.7660 Cl  0  0  0  0  0  0  0  0  0  0  0  0
   -1.5370    3.4230    1.2420 Cl  0  0  0  0  0  0  0  0  0  0  0  0
   -0.7480   -2.2290   -1.2170 C   0  0  0  0  0  0  0  0  0  0  0  0
    0.6570   -2.3380    0.7570 C   0  0  0  0  0  0  0  0  0  0  0  0
    3.9290    1.8110   -0.2750 C   0  0  0  0  0  0  0  0  0  0  0  0
    2.9590    3.9560    0.2950 C   0  0  0  0  0  0  0  0  0  0  0  0
   -0.9900    2.7970   -3.4260 C   0  0  0  0  0  0  0  0  0  0  0  0
    0.8370    1.5130   -2.8510 O   0  0  0  0  0  0  0  0  0  0  0  0
   -0.0610   -2.9910   -0.2580 C   0  0  0  0  0  0  0  0  0  0  0  0
    4.0930    3.1690    0.0410 C   0  0  0  0  0  0  0  0  0  0  0  0
   -0.1110   -4.6820   -0.3150 Cl  0  0  0  0  0  0  0  0  0  0  0  0
    5.6380    3.8580    0.0740 Cl  0  0  0  0  0  0  0  0  0  0  0  0
   -1.4120    2.4960   -1.0220 H   0  0  0  0  0  0  0  0  0  0  0  0
   -1.2580   -0.3210   -1.8600 H   0  0  0  0  0  0  0  0  0  0  0  0
    1.2340   -0.4990    1.5490 H   0  0  0  0  0  0  0  0  0  0  0  0
    2.5810    0.2720   -0.6030 H   0  0  0  0  0  0  0  0  0  0  0  0
    0.8920    4.0060    0.3980 H   0  0  0  0  0  0  0  0  0  0  0  0
   -1.2910   -2.6920   -1.9500 H   0  0  0  0  0  0  0  0  0  0  0  0
    1.1560   -2.8790    1.4670 H   0  0  0  0  0  0  0  0  0  0  0  0
    4.7420    1.2320   -0.4980 H   0  0  0  0  0  0  0  0  0  0  0  0
    3.0590    4.9550    0.4930 H   0  0  0  0  0  0  0  0  0  0  0  0
   -0.5600    2.7570   -4.4290 H   0  0  0  0  0  0  0  0  0  0  0  0
   -1.9910    2.3620   -3.4620 H   0  0  0  0  0  0  0  0  0  0  0  0
   -1.0690    3.8440   -3.1260 H   0  0  0  0  0  0  0  0  0  0  0  0
  1  3  1  0  0  0  0
  1  5  1  0  0  0  0
  1  2  1  0  0  0  0
  1  4  1  0  0  0  0
  2  7  2  0  0  0  0
  2  6  1  0  0  0  0
  3  9  2  0  0  0  0
  3  8  1  0  0  0  0
  4 24  1  0  0  0  0
  4 10  1  0  0  0  0
  5 13  1  0  0  0  0
  5 11  1  0  0  0  0
  5 12  1  0  0  0  0
  6 14  2  0  0  0  0
  6 25  1  0  0  0  0
  7 26  1  0  0  0  0
  7 15  1  0  0  0  0
  8 16  2  0  0  0  0
  8 27  1  0  0  0  0
  9 17  1  0  0  0  0
  9 28  1  0  0  0  0
 10 18  1  0  0  0  0
 10 19  2  0  0  0  0
 14 20  1  0  0  0  0
 14 29  1  0  0  0  0
 15 30  1  0  0  0  0
 15 20  2  0  0  0  0
 16 21  1  0  0  0  0
 16 31  1  0  0  0  0
 17 32  1  0  0  0  0
 17 21  2  0  0  0  0
 18 35  1  0  0  0  0
 18 33  1  0  0  0  0
 18 34  1  0  0  0  0
 20 22  1  0  0  0  0
 21 23  1  0  0  0  0
M  END
