decoy-18
 OpenBabel06062114503D

 32 33  0  0  0  0  0  0  0  0999 V2000
   -0.6510    0.2280    0.3600 C   0  0  0  0  0  0  0  0  0  0  0  0
    0.6270    0.2370    1.1870 C   0  0  0  0  0  0  0  0  0  0  0  0
   -1.8110    0.5640    1.2300 C   0  0  0  0  0  0  0  0  0  0  0  0
   -0.4760    1.2680   -0.6740 C   0  0  0  0  0  0  0  0  0  0  0  0
   -1.0000   -1.1010   -0.4280 C   0  0  0  0  0  0  0  0  0  0  0  0
    0.9310    1.3590    2.0090 C   0  0  0  0  0  0  0  0  0  0  0  0
    1.5940   -0.8040    1.1480 C   0  0  0  0  0  0  0  0  0  0  0  0
   -2.6130    1.6300    1.0220 N   0  0  0  0  0  0  0  0  0  0  0  0
   -1.9910   -0.1500    2.2130 O   0  0  0  0  0  0  0  0  0  0  0  0
   -1.3100    2.2840   -0.8020 N   0  0  0  0  0  0  0  0  0  0  0  0
    0.4430    1.2140   -1.4820 O   0  0  0  0  0  0  0  0  0  0  0  0
   -1.3590   -2.3750    0.3850 C   0  0  0  0  0  0  0  0  0  0  0  0
    2.1070    1.4220    2.7770 C   0  0  0  0  0  0  0  0  0  0  0  0
    2.7730   -0.7470    1.9140 C   0  0  0  0  0  0  0  0  0  0  0  0
   -2.3470    2.4620    0.0000 C   0  0  0  0  0  0  0  0  0  0  0  0
   -3.7410    1.8680    1.9100 C   0  0  0  0  0  0  0  0  0  0  0  0
    3.0290    0.3640    2.7330 C   0  0  0  0  0  0  0  0  0  0  0  0
   -3.0230    3.4500   -0.2570 O   0  0  0  0  0  0  0  0  0  0  0  0
   -1.8550   -0.9120   -1.0880 H   0  0  0  0  0  0  0  0  0  0  0  0
   -0.1660   -1.3610   -1.0870 H   0  0  0  0  0  0  0  0  0  0  0  0
    0.2870    2.1530    2.0550 H   0  0  0  0  0  0  0  0  0  0  0  0
    1.4680   -1.6180    0.5490 H   0  0  0  0  0  0  0  0  0  0  0  0
   -1.1560    2.9260   -1.5140 H   0  0  0  0  0  0  0  0  0  0  0  0
   -0.6600   -2.5370    1.2040 H   0  0  0  0  0  0  0  0  0  0  0  0
   -1.3340   -3.2490   -0.2700 H   0  0  0  0  0  0  0  0  0  0  0  0
   -2.3660   -2.2950    0.7960 H   0  0  0  0  0  0  0  0  0  0  0  0
    2.2950    2.2380    3.3630 H   0  0  0  0  0  0  0  0  0  0  0  0
    3.4500   -1.5120    1.8680 H   0  0  0  0  0  0  0  0  0  0  0  0
   -4.4130    1.0060    1.8910 H   0  0  0  0  0  0  0  0  0  0  0  0
   -4.3380    2.7450    1.6540 H   0  0  0  0  0  0  0  0  0  0  0  0
   -3.3830    2.0090    2.9320 H   0  0  0  0  0  0  0  0  0  0  0  0
    3.8870    0.4070    3.2870 H   0  0  0  0  0  0  0  0  0  0  0  0
  1  5  1  0  0  0  0
  1  2  1  0  0  0  0
  1  3  1  0  0  0  0
  1  4  1  0  0  0  0
  2  6  2  0  0  0  0
  2  7  1  0  0  0  0
  3  9  2  0  0  0  0
  3  8  1  0  0  0  0
  4 10  1  0  0  0  0
  4 11  2  0  0  0  0
  5 12  1  0  0  0  0
  5 19  1  0  0  0  0
  5 20  1  0  0  0  0
  6 21  1  0  0  0  0
  6 13  1  0  0  0  0
  7 14  2  0  0  0  0
  7 22  1  0  0  0  0
  8 16  1  0  0  0  0
  8 15  1  0  0  0  0
 10 15  1  0  0  0  0
 10 23  1  0  0  0  0
 12 26  1  0  0  0  0
 12 24  1  0  0  0  0
 12 25  1  0  0  0  0
 13 27  1  0  0  0  0
 13 17  2  0  0  0  0
 14 17  1  0  0  0  0
 14 28  1  0  0  0  0
 15 18  2  0  0  0  0
 16 31  1  0  0  0  0
 16 29  1  0  0  0  0
 16 30  1  0  0  0  0
 17 32  1  0  0  0  0
M  END
