decoy-939
 OpenBabel06062114513D

 44 46  0  0  0  0  0  0  0  0999 V2000
   -0.3110    1.4260   -0.0330 C   0  0  0  0  0  0  0  0  0  0  0  0
   -0.0900    0.0270   -0.0290 C   0  0  0  0  0  0  0  0  0  0  0  0
    0.7590    2.2590   -0.0200 N   0  0  0  0  0  0  0  0  0  0  0  0
   -1.6050    1.9880   -0.0510 C   0  0  0  0  0  0  0  0  0  0  0  0
    1.2390   -0.4830   -0.0110 C   0  0  0  0  0  0  0  0  0  0  0  0
   -1.1940   -0.8590   -0.0430 C   0  0  0  0  0  0  0  0  0  0  0  0
    2.0480    1.8390   -0.0020 C   0  0  0  0  0  0  0  0  0  0  0  0
   -2.7360    1.1200   -0.0660 C   0  0  0  0  0  0  0  0  0  0  0  0
    2.3160    0.4480    0.0030 C   0  0  0  0  0  0  0  0  0  0  0  0
   -2.4800   -0.2820   -0.0610 C   0  0  0  0  0  0  0  0  0  0  0  0
    3.0740    2.8080    0.0100 C   0  0  0  0  0  0  0  0  0  0  0  0
   -4.0330    1.6300   -0.0830 N   0  0  0  0  0  0  0  0  0  0  0  0
    3.6550   -0.0100    0.0210 C   0  0  0  0  0  0  0  0  0  0  0  0
    4.4330    2.3760    0.0290 C   0  0  0  0  0  0  0  0  0  0  0  0
   -5.1970    0.7600   -0.0980 C   0  0  0  0  0  0  0  0  0  0  0  0
   -4.2880    3.0630   -0.0880 C   0  0  0  0  0  0  0  0  0  0  0  0
    4.6680    0.9710    0.0340 C   0  0  0  0  0  0  0  0  0  0  0  0
    5.4790    3.2960    0.0420 N   0  0  0  0  0  0  0  0  0  0  0  0
    6.8690    2.8740    0.0610 C   0  0  0  0  0  0  0  0  0  0  0  0
    5.2320    4.7310    0.0370 C   0  0  0  0  0  0  0  0  0  0  0  0
   -1.6810    2.6150    0.7540 H   0  0  0  0  0  0  0  0  0  0  0  0
    1.3380   -1.1080    0.7960 H   0  0  0  0  0  0  0  0  0  0  0  0
   -1.1330   -1.4890    0.7630 H   0  0  0  0  0  0  0  0  0  0  0  0
   -3.2590   -0.9430   -0.0700 H   0  0  0  0  0  0  0  0  0  0  0  0
    2.9120    3.4200    0.8140 H   0  0  0  0  0  0  0  0  0  0  0  0
    3.8130   -0.6280   -0.7810 H   0  0  0  0  0  0  0  0  0  0  0  0
   -6.1540    1.2840   -0.1110 H   0  0  0  0  0  0  0  0  0  0  0  0
   -5.1750    0.1270   -0.9880 H   0  0  0  0  0  0  0  0  0  0  0  0
   -5.1990    0.1290    0.7930 H   0  0  0  0  0  0  0  0  0  0  0  0
   -3.8640    3.5230    0.8060 H   0  0  0  0  0  0  0  0  0  0  0  0
   -3.8400    3.5210   -0.9720 H   0  0  0  0  0  0  0  0  0  0  0  0
   -5.3460    3.3320   -0.1030 H   0  0  0  0  0  0  0  0  0  0  0  0
    5.6260    0.6140    0.0470 H   0  0  0  0  0  0  0  0  0  0  0  0
    7.5910    3.6920    0.0700 H   0  0  0  0  0  0  0  0  0  0  0  0
    7.0630    2.2770    0.9550 H   0  0  0  0  0  0  0  0  0  0  0  0
    7.0870    2.2750   -0.8260 H   0  0  0  0  0  0  0  0  0  0  0  0
    4.6780    5.0130   -0.8590 H   0  0  0  0  0  0  0  0  0  0  0  0
    4.6550    5.0150    0.9180 H   0  0  0  0  0  0  0  0  0  0  0  0
    6.1360    5.3430    0.0490 H   0  0  0  0  0  0  0  0  0  0  0  0
   -1.6600    2.6130   -0.8590 H   0  0  0  0  0  0  0  0  0  0  0  0
    1.3590   -1.1100   -0.8130 H   0  0  0  0  0  0  0  0  0  0  0  0
   -1.1110   -1.4900   -0.8460 H   0  0  0  0  0  0  0  0  0  0  0  0
    2.9330    3.4180   -0.7990 H   0  0  0  0  0  0  0  0  0  0  0  0
    3.7910   -0.6260    0.8280 H   0  0  0  0  0  0  0  0  0  0  0  0
  1  2  2  0  0  0  0
  1  3  1  0  0  0  0
  1  4  1  0  0  0  0
  2  5  1  0  0  0  0
  2  6  1  0  0  0  0
  3  7  2  0  0  0  0
  4 21  1  0  0  0  0
  4  8  1  0  0  0  0
  4 40  1  0  0  0  0
  5  9  1  0  0  0  0
  5 22  1  0  0  0  0
  5 41  1  0  0  0  0
  6 23  1  0  0  0  0
  6 10  1  0  0  0  0
  6 42  1  0  0  0  0
  7 11  1  0  0  0  0
  7  9  1  0  0  0  0
  8 10  2  0  0  0  0
  8 12  1  0  0  0  0
  9 13  1  0  0  0  0
 10 24  1  0  0  0  0
 11 14  1  0  0  0  0
 11 25  1  0  0  0  0
 11 43  1  0  0  0  0
 12 15  1  0  0  0  0
 12 16  1  0  0  0  0
 13 17  1  0  0  0  0
 13 44  1  0  0  0  0
 13 26  1  0  0  0  0
 14 17  2  0  0  0  0
 14 18  1  0  0  0  0
 15 29  1  0  0  0  0
 15 27  1  0  0  0  0
 15 28  1  0  0  0  0
 16 30  1  0  0  0  0
 16 31  1  0  0  0  0
 16 32  1  0  0  0  0
 17 33  1  0  0  0  0
 18 19  1  0  0  0  0
 18 20  1  0  0  0  0
 19 34  1  0  0  0  0
 19 35  1  0  0  0  0
 19 36  1  0  0  0  0
 20 39  1  0  0  0  0
 20 38  1  0  0  0  0
 20 37  1  0  0  0  0
M  END
