decoy-214
 OpenBabel06062114503D

 31 33  0  0  0  0  0  0  0  0999 V2000
    0.2280    1.3830    0.2850 N   0  0  0  0  0  0  0  0  0  0  0  0
    0.0900    0.0910   -0.0610 C   0  0  0  0  0  0  0  0  0  0  0  0
    1.4110    2.1850    0.1260 C   0  0  0  0  0  0  0  0  0  0  0  0
   -0.9600    1.7680    0.8040 C   0  0  0  0  0  0  0  0  0  0  0  0
   -1.2100   -0.2940    0.2570 C   0  0  0  0  0  0  0  0  0  0  0  0
    0.9610   -0.7940   -0.6130 N   0  0  0  0  0  0  0  0  0  0  0  0
    1.3610    3.3980    0.9000 O   0  0  0  0  0  0  0  0  0  0  0  0
    1.6690    2.5910   -1.3420 C   0  0  0  0  0  0  0  0  0  0  0  0
   -1.8470    0.7560    0.7910 N   0  0  0  0  0  0  0  0  0  0  0  0
   -1.6120   -1.6140   -0.0080 C   0  0  0  0  0  0  0  0  0  0  0  0
    0.5630   -2.0700   -0.8660 C   0  0  0  0  0  0  0  0  0  0  0  0
    1.7350    4.5170    0.0820 C   0  0  0  0  0  0  0  0  0  0  0  0
    2.3890    3.9360   -1.1900 C   0  0  0  0  0  0  0  0  0  0  0  0
    2.4380    1.6350   -2.0710 O   0  0  0  0  0  0  0  0  0  0  0  0
   -0.7070   -2.4640   -0.5650 N   0  0  0  0  0  0  0  0  0  0  0  0
   -2.8520   -2.0420    0.2750 N   0  0  0  0  0  0  0  0  0  0  0  0
    0.4870    5.3910   -0.1990 C   0  0  0  0  0  0  0  0  0  0  0  0
    3.7920    3.7610   -0.9850 O   0  0  0  0  0  0  0  0  0  0  0  0
   -0.3420    6.1160    1.6160 I   0  0  0  0  0  0  0  0  0  0  0  0
    2.2700    1.6210    0.5040 H   0  0  0  0  0  0  0  0  0  0  0  0
   -1.1790    2.7010    1.1580 H   0  0  0  0  0  0  0  0  0  0  0  0
    0.7210    2.7450   -1.8670 H   0  0  0  0  0  0  0  0  0  0  0  0
    1.2160   -2.7340   -1.2820 H   0  0  0  0  0  0  0  0  0  0  0  0
    2.4560    5.1270    0.6320 H   0  0  0  0  0  0  0  0  0  0  0  0
    2.2420    4.5730   -2.0670 H   0  0  0  0  0  0  0  0  0  0  0  0
    1.8670    0.8410   -2.1280 H   0  0  0  0  0  0  0  0  0  0  0  0
   -3.1050   -2.9590    0.0820 H   0  0  0  0  0  0  0  0  0  0  0  0
   -3.4980   -1.4370    0.6720 H   0  0  0  0  0  0  0  0  0  0  0  0
    0.7630    6.2490   -0.8150 H   0  0  0  0  0  0  0  0  0  0  0  0
   -0.2790    4.8160   -0.7220 H   0  0  0  0  0  0  0  0  0  0  0  0
    4.1260    3.3750   -1.8220 H   0  0  0  0  0  0  0  0  0  0  0  0
  1  4  1  0  0  0  0
  1  2  1  0  0  0  0
  1  3  1  0  0  0  0
  2  5  2  0  0  0  0
  2  6  1  0  0  0  0
  3  8  1  0  0  0  0
  3 20  1  0  0  0  0
  3  7  1  0  0  0  0
  4 21  1  0  0  0  0
  4  9  2  0  0  0  0
  5  9  1  0  0  0  0
  5 10  1  0  0  0  0
  6 11  2  0  0  0  0
  7 12  1  0  0  0  0
  8 13  1  0  0  0  0
  8 14  1  0  0  0  0
  8 22  1  0  0  0  0
 10 16  1  0  0  0  0
 10 15  2  0  0  0  0
 11 15  1  0  0  0  0
 11 23  1  0  0  0  0
 12 13  1  0  0  0  0
 12 24  1  0  0  0  0
 12 17  1  0  0  0  0
 13 25  1  0  0  0  0
 13 18  1  0  0  0  0
 14 26  1  0  0  0  0
 16 28  1  0  0  0  0
 16 27  1  0  0  0  0
 17 19  1  0  0  0  0
 17 29  1  0  0  0  0
 17 30  1  0  0  0  0
 18 31  1  0  0  0  0
M  END
