decoy-778
 OpenBabel06062114513D

 51 53  0  0  0  0  0  0  0  0999 V2000
   -9.2730   -0.6830   -1.1260 C   0  0  0  0  0  0  0  0  0  0  0  0
   -9.8630    0.7720   -0.9550 C   0  0  0  0  0  0  0  0  0  0  0  0
   -7.7600   -0.6430   -1.0570 C   0  0  0  0  0  0  0  0  0  0  0  0
   -9.8390   -1.6470   -0.1320 C   0  0  0  0  0  0  0  0  0  0  0  0
   -9.6960   -1.1930   -2.3980 O   0  0  0  0  0  0  0  0  0  0  0  0
   -9.3130    1.8080   -1.9670 C   0  0  0  0  0  0  0  0  0  0  0  0
  -11.3960    0.9540   -1.1120 C   0  0  0  0  0  0  0  0  0  0  0  0
   -7.1050   -0.1940    0.1220 C   0  0  0  0  0  0  0  0  0  0  0  0
   -6.9370   -1.0230   -2.1510 C   0  0  0  0  0  0  0  0  0  0  0  0
  -11.1790   -1.8860   -0.1290 O   0  0  0  0  0  0  0  0  0  0  0  0
   -9.0480   -2.3680    0.7000 O   0  0  0  0  0  0  0  0  0  0  0  0
  -10.2660    3.0150   -1.8820 C   0  0  0  0  0  0  0  0  0  0  0  0
  -11.6240    2.4510   -1.4160 C   0  0  0  0  0  0  0  0  0  0  0  0
   -5.7030   -0.1310    0.2070 C   0  0  0  0  0  0  0  0  0  0  0  0
   -5.5330   -0.9600   -2.0700 C   0  0  0  0  0  0  0  0  0  0  0  0
  -11.9380   -2.8030    0.6780 C   0  0  0  0  0  0  0  0  0  0  0  0
   -4.9150   -0.5140   -0.8900 C   0  0  0  0  0  0  0  0  0  0  0  0
  -13.0250   -2.0700    1.4980 C   0  0  0  0  0  0  0  0  0  0  0  0
  -12.7230   -3.8050   -0.1960 C   0  0  0  0  0  0  0  0  0  0  0  0
  -14.2120   -2.9870    1.5690 C   0  0  0  0  0  0  0  0  0  0  0  0
  -14.2030   -3.6270    0.2110 C   0  0  0  0  0  0  0  0  0  0  0  0
  -15.4880   -2.2240    1.8150 C   0  0  0  0  0  0  0  0  0  0  0  0
  -14.0500   -4.0170    2.6640 C   0  0  0  0  0  0  0  0  0  0  0  0
   -9.6110    1.1280    0.0510 H   0  0  0  0  0  0  0  0  0  0  0  0
  -10.6710   -1.2660   -2.3550 H   0  0  0  0  0  0  0  0  0  0  0  0
   -8.2880    2.1030   -1.7270 H   0  0  0  0  0  0  0  0  0  0  0  0
   -9.3310    1.3990   -2.9820 H   0  0  0  0  0  0  0  0  0  0  0  0
  -11.7780    0.3580   -1.9430 H   0  0  0  0  0  0  0  0  0  0  0  0
  -11.9250    0.6650   -0.2010 H   0  0  0  0  0  0  0  0  0  0  0  0
   -7.6500    0.0850    0.9400 H   0  0  0  0  0  0  0  0  0  0  0  0
   -7.3460   -1.3480   -3.0280 H   0  0  0  0  0  0  0  0  0  0  0  0
   -9.8880    3.7340   -1.1490 H   0  0  0  0  0  0  0  0  0  0  0  0
  -10.3500    3.5160   -2.8500 H   0  0  0  0  0  0  0  0  0  0  0  0
  -12.3850    2.5740   -2.1910 H   0  0  0  0  0  0  0  0  0  0  0  0
  -11.9590    2.9740   -0.5150 H   0  0  0  0  0  0  0  0  0  0  0  0
   -5.2560    0.1920    1.0680 H   0  0  0  0  0  0  0  0  0  0  0  0
   -4.9610   -1.2380   -2.8710 H   0  0  0  0  0  0  0  0  0  0  0  0
  -11.2880   -3.3550    1.3630 H   0  0  0  0  0  0  0  0  0  0  0  0
   -3.8950   -0.4690   -0.8310 H   0  0  0  0  0  0  0  0  0  0  0  0
  -12.6440   -1.7910    2.4860 H   0  0  0  0  0  0  0  0  0  0  0  0
  -13.2820   -1.1410    0.9780 H   0  0  0  0  0  0  0  0  0  0  0  0
  -12.5890   -3.6080   -1.2630 H   0  0  0  0  0  0  0  0  0  0  0  0
  -12.3940   -4.8270    0.0100 H   0  0  0  0  0  0  0  0  0  0  0  0
  -14.6790   -2.9810   -0.5350 H   0  0  0  0  0  0  0  0  0  0  0  0
  -14.7310   -4.5860    0.1900 H   0  0  0  0  0  0  0  0  0  0  0  0
  -15.4610   -1.7180    2.7840 H   0  0  0  0  0  0  0  0  0  0  0  0
  -16.3530   -2.8930    1.8060 H   0  0  0  0  0  0  0  0  0  0  0  0
  -15.6580   -1.4600    1.0520 H   0  0  0  0  0  0  0  0  0  0  0  0
  -13.1430   -4.6130    2.5380 H   0  0  0  0  0  0  0  0  0  0  0  0
  -14.8950   -4.7110    2.6800 H   0  0  0  0  0  0  0  0  0  0  0  0
  -13.9920   -3.5410    3.6470 H   0  0  0  0  0  0  0  0  0  0  0  0
  1  5  1  0  0  0  0
  1  3  1  0  0  0  0
  1  2  1  0  0  0  0
  1  4  1  0  0  0  0
  2 24  1  0  0  0  0
  2  6  1  0  0  0  0
  2  7  1  0  0  0  0
  3  8  2  0  0  0  0
  3  9  1  0  0  0  0
  4 10  1  0  0  0  0
  4 11  2  0  0  0  0
  5 25  1  0  0  0  0
  6 12  1  0  0  0  0
  6 26  1  0  0  0  0
  6 27  1  0  0  0  0
  7 29  1  0  0  0  0
  7 13  1  0  0  0  0
  7 28  1  0  0  0  0
  8 14  1  0  0  0  0
  8 30  1  0  0  0  0
  9 15  2  0  0  0  0
  9 31  1  0  0  0  0
 10 16  1  0  0  0  0
 12 13  1  0  0  0  0
 12 32  1  0  0  0  0
 12 33  1  0  0  0  0
 13 35  1  0  0  0  0
 13 34  1  0  0  0  0
 14 36  1  0  0  0  0
 14 17  2  0  0  0  0
 15 17  1  0  0  0  0
 15 37  1  0  0  0  0
 16 38  1  0  0  0  0
 16 18  1  0  0  0  0
 16 19  1  0  0  0  0
 17 39  1  0  0  0  0
 18 20  1  0  0  0  0
 18 40  1  0  0  0  0
 18 41  1  0  0  0  0
 19 43  1  0  0  0  0
 19 21  1  0  0  0  0
 19 42  1  0  0  0  0
 20 22  1  0  0  0  0
 20 23  1  0  0  0  0
 20 21  1  0  0  0  0
 21 44  1  0  0  0  0
 21 45  1  0  0  0  0
 22 46  1  0  0  0  0
 22 47  1  0  0  0  0
 22 48  1  0  0  0  0
 23 50  1  0  0  0  0
 23 51  1  0  0  0  0
 23 49  1  0  0  0  0
M  END
