decoy-314
 OpenBabel06062114513D

 41 43  0  0  0  0  0  0  0  0999 V2000
   -0.6650    0.6840   -0.3370 C   0  0  0  0  0  0  0  0  0  0  0  0
   -0.8060    1.8180    0.5160 C   0  0  0  0  0  0  0  0  0  0  0  0
   -1.8090    0.0170   -0.7500 N   0  0  0  0  0  0  0  0  0  0  0  0
    0.6540    0.3130   -0.7150 C   0  0  0  0  0  0  0  0  0  0  0  0
   -2.0980    2.2290    0.8740 C   0  0  0  0  0  0  0  0  0  0  0  0
    0.3420    2.4980    0.9810 C   0  0  0  0  0  0  0  0  0  0  0  0
   -3.0240    0.3910   -0.2480 C   0  0  0  0  0  0  0  0  0  0  0  0
   -1.7910   -1.1110   -1.6730 C   0  0  0  0  0  0  0  0  0  0  0  0
    1.8210    0.9920   -0.2760 C   0  0  0  0  0  0  0  0  0  0  0  0
   -3.1910    1.4610    0.5580 C   0  0  0  0  0  0  0  0  0  0  0  0
   -2.2650    3.3580    1.3250 O   0  0  0  0  0  0  0  0  0  0  0  0
    1.6300    2.0950    0.5940 C   0  0  0  0  0  0  0  0  0  0  0  0
   -1.4350   -2.4410   -0.9680 C   0  0  0  0  0  0  0  0  0  0  0  0
    3.0670    0.5760   -0.6940 N   0  0  0  0  0  0  0  0  0  0  0  0
   -4.4500    1.7410    1.0800 C   0  0  0  0  0  0  0  0  0  0  0  0
    2.6310    2.7130    1.1630 F   0  0  0  0  0  0  0  0  0  0  0  0
    4.1320    1.5010   -1.0410 C   0  0  0  0  0  0  0  0  0  0  0  0
    3.4110   -0.8300   -0.8410 C   0  0  0  0  0  0  0  0  0  0  0  0
   -5.5570    1.7000    0.3030 O   0  0  0  0  0  0  0  0  0  0  0  0
   -4.6080    2.0560    2.3860 O   0  0  0  0  0  0  0  0  0  0  0  0
    5.3910    1.2160   -0.1850 C   0  0  0  0  0  0  0  0  0  0  0  0
    4.6840   -1.1550   -0.0130 C   0  0  0  0  0  0  0  0  0  0  0  0
    5.7790   -0.2060   -0.3160 C   0  0  0  0  0  0  0  0  0  0  0  0
    0.7790   -0.4560   -1.3690 H   0  0  0  0  0  0  0  0  0  0  0  0
    0.2480    3.2900    1.6240 H   0  0  0  0  0  0  0  0  0  0  0  0
   -3.8200   -0.1770   -0.4450 H   0  0  0  0  0  0  0  0  0  0  0  0
   -2.7620   -1.2540   -2.1600 H   0  0  0  0  0  0  0  0  0  0  0  0
   -1.0980   -0.9270   -2.4970 H   0  0  0  0  0  0  0  0  0  0  0  0
   -0.4550   -2.3860   -0.4950 H   0  0  0  0  0  0  0  0  0  0  0  0
   -1.4240   -3.2550   -1.6960 H   0  0  0  0  0  0  0  0  0  0  0  0
   -2.1800   -2.6680   -0.2030 H   0  0  0  0  0  0  0  0  0  0  0  0
    4.3890    1.3540   -2.0940 H   0  0  0  0  0  0  0  0  0  0  0  0
    3.8540    2.5520   -0.9480 H   0  0  0  0  0  0  0  0  0  0  0  0
    2.6260   -1.5050   -0.4920 H   0  0  0  0  0  0  0  0  0  0  0  0
    3.5960   -1.0520   -1.8960 H   0  0  0  0  0  0  0  0  0  0  0  0
    6.2190    1.8410   -0.5250 H   0  0  0  0  0  0  0  0  0  0  0  0
    5.1930    1.4500    0.8640 H   0  0  0  0  0  0  0  0  0  0  0  0
    4.4510   -1.1080    1.0540 H   0  0  0  0  0  0  0  0  0  0  0  0
    5.0230   -2.1670   -0.2420 H   0  0  0  0  0  0  0  0  0  0  0  0
    6.0870   -0.3680   -1.2780 H   0  0  0  0  0  0  0  0  0  0  0  0
    6.5640   -0.3950    0.3120 H   0  0  0  0  0  0  0  0  0  0  0  0
  1  2  2  0  0  0  0
  1  3  1  0  0  0  0
  1  4  1  0  0  0  0
  2  5  1  0  0  0  0
  2  6  1  0  0  0  0
  3  7  1  0  0  0  0
  3  8  1  0  0  0  0
  4  9  2  0  0  0  0
  4 24  1  0  0  0  0
  5 11  2  0  0  0  0
  5 10  1  0  0  0  0
  6 25  1  0  0  0  0
  6 12  2  0  0  0  0
  7 10  2  0  0  0  0
  7 26  1  0  0  0  0
  8 13  1  0  0  0  0
  8 27  1  0  0  0  0
  8 28  1  0  0  0  0
  9 12  1  0  0  0  0
  9 14  1  0  0  0  0
 10 15  1  0  0  0  0
 12 16  1  0  0  0  0
 13 29  1  0  0  0  0
 13 31  1  0  0  0  0
 13 30  1  0  0  0  0
 14 17  1  0  0  0  0
 14 18  1  0  0  0  0
 15 20  1  0  0  0  0
 15 19  2  0  0  0  0
 17 33  1  0  0  0  0
 17 21  1  0  0  0  0
 17 32  1  0  0  0  0
 18 34  1  0  0  0  0
 18 22  1  0  0  0  0
 18 35  1  0  0  0  0
 21 37  1  0  0  0  0
 21 23  1  0  0  0  0
 21 36  1  0  0  0  0
 22 38  1  0  0  0  0
 22 23  1  0  0  0  0
 22 39  1  0  0  0  0
 23 41  1  0  0  0  0
 23 40  1  0  0  0  0
M  END
