
  ACD/Labs06062115043D

 35 36  0  0  0  0  0  0  0  0  2 V2000
   18.2579   -6.3893    2.6361 N   0  3  0  0  0  0  0  0  0  0  0  0
   19.2755   -6.2395    3.5237 C   0  0  0  0  0  0  0  0  0  0  0  0
   18.3679   -6.8034    1.2520 C   0  0  0  0  0  0  0  0  0  0  0  0
   17.0633   -6.1202    3.2035 C   0  0  0  0  0  0  0  0  0  0  0  0
   18.8154   -5.8052    4.7797 C   0  0  0  0  0  0  0  0  0  0  0  0
   20.7027   -6.4839    3.1914 C   0  0  0  0  0  0  0  0  0  0  0  0
   19.1107   -5.8408    0.3899 C   0  0  0  0  0  0  0  0  0  0  0  0
   17.0877   -5.7458    4.8888 S   0  0  0  0  0  0  0  0  0  0  0  0
   19.6343   -5.3773    5.9406 C   0  0  0  0  0  0  0  0  0  0  0  0
   18.6738   -4.5099    0.1676 C   0  0  0  0  0  0  0  0  0  0  0  0
   20.2978   -6.2290   -0.2729 C   0  0  0  0  0  0  0  0  0  0  0  0
   20.3394   -4.0217    5.7030 C   0  0  0  0  0  0  0  0  0  0  0  0
   19.3989   -3.6793   -0.6238 N   0  0  0  0  0  0  0  0  0  0  0  0
   17.5471   -4.0074    0.6999 N   0  0  0  0  0  0  0  0  0  0  0  0
   20.9757   -5.3504   -1.0514 N   0  0  0  0  0  0  0  0  0  0  0  0
   21.0906   -3.6531    6.8550 O   0  0  0  0  0  0  0  0  0  0  0  0
   20.5450   -4.0771   -1.2340 C   0  0  0  0  0  0  0  0  0  0  0  0
   21.3109   -3.1564   -2.0850 C   0  0  0  0  0  0  0  0  0  0  0  0
   18.8387   -7.7894    1.2367 H   0  0  0  0  0  0  0  0  0  0  0  0
   17.3825   -6.9398    0.7964 H   0  0  0  0  0  0  0  0  0  0  0  0
   16.1752   -6.1615    2.6982 H   0  0  0  0  0  0  0  0  0  0  0  0
   21.3521   -6.4461    4.0638 H   0  0  0  0  0  0  0  0  0  0  0  0
   20.8128   -7.4733    2.7463 H   0  0  0  0  0  0  0  0  0  0  0  0
   21.0480   -5.7305    2.4833 H   0  0  0  0  0  0  0  0  0  0  0  0
   18.9972   -5.2713    6.8227 H   0  0  0  0  0  0  0  0  0  0  0  0
   20.3711   -6.1491    6.1751 H   0  0  0  0  0  0  0  0  0  0  0  0
   20.6717   -7.1744   -0.1709 H   0  0  0  0  0  0  0  0  0  0  0  0
   21.0210   -4.0786    4.8526 H   0  0  0  0  0  0  0  0  0  0  0  0
   19.5986   -3.2433    5.5078 H   0  0  0  0  0  0  0  0  0  0  0  0
   17.2905   -3.0905    0.5137 H   0  0  0  0  0  0  0  0  0  0  0  0
   16.9791   -4.5597    1.2588 H   0  0  0  0  0  0  0  0  0  0  0  0
   21.4959   -2.7905    6.6257 H   0  0  0  0  0  0  0  0  0  0  0  0
   20.8343   -2.1749   -2.1314 H   0  0  0  0  0  0  0  0  0  0  0  0
   22.3181   -3.0359   -1.6813 H   0  0  0  0  0  0  0  0  0  0  0  0
   21.3781   -3.5610   -3.0962 H   0  0  0  0  0  0  0  0  0  0  0  0
  1  3  1  0  0  0  0
  1  2  1  0  0  0  0
  1  4  2  0  0  0  0
  2  6  1  0  0  0  0
  2  5  2  0  0  0  0
  3  7  1  0  0  0  0
  3 19  1  0  0  0  0
  3 20  1  0  0  0  0
  4  8  1  0  0  0  0
  4 21  1  0  0  0  0
  5  9  1  0  0  0  0
  5  8  1  0  0  0  0
  6 22  1  0  0  0  0
  6 24  1  0  0  0  0
  6 23  1  0  0  0  0
  7 11  2  0  0  0  0
  7 10  1  0  0  0  0
  9 12  1  0  0  0  0
  9 25  1  0  0  0  0
  9 26  1  0  0  0  0
 10 13  2  0  0  0  0
 10 14  1  0  0  0  0
 11 15  1  0  0  0  0
 11 27  1  0  0  0  0
 12 16  1  0  0  0  0
 12 29  1  0  0  0  0
 12 28  1  0  0  0  0
 13 17  1  0  0  0  0
 14 30  1  0  0  0  0
 14 31  1  0  0  0  0
 15 17  2  0  0  0  0
 16 32  1  0  0  0  0
 17 18  1  0  0  0  0
 18 35  1  0  0  0  0
 18 34  1  0  0  0  0
 18 33  1  0  0  0  0
M  CHG  1   1   1
M  END
