decoy-141
 OpenBabel06062114503D

 48 52  0  0  0  0  0  0  0  0999 V2000
   -0.2020    1.5270    0.2080 C   0  0  0  0  0  0  0  0  0  0  0  0
   -0.1580    0.1080    0.1520 C   0  0  0  0  0  0  0  0  0  0  0  0
    0.8800    2.3310    0.0940 O   0  0  0  0  0  0  0  0  0  0  0  0
   -1.2930    2.3770    0.3830 C   0  0  0  0  0  0  0  0  0  0  0  0
    1.0790   -0.5500   -0.0380 C   0  0  0  0  0  0  0  0  0  0  0  0
   -1.3200   -0.6890    0.2800 C   0  0  0  0  0  0  0  0  0  0  0  0
    0.4700    3.6190    0.1930 C   0  0  0  0  0  0  0  0  0  0  0  0
   -0.8630    3.6440    0.3700 N   0  0  0  0  0  0  0  0  0  0  0  0
    1.1540   -1.9540   -0.0960 C   0  0  0  0  0  0  0  0  0  0  0  0
   -1.2460   -2.0930    0.2200 C   0  0  0  0  0  0  0  0  0  0  0  0
    1.3230    4.7470    0.1200 C   0  0  0  0  0  0  0  0  0  0  0  0
   -0.0080   -2.7510    0.0310 C   0  0  0  0  0  0  0  0  0  0  0  0
    0.8140    6.0610    0.2350 C   0  0  0  0  0  0  0  0  0  0  0  0
    2.7140    4.5830   -0.0700 C   0  0  0  0  0  0  0  0  0  0  0  0
    0.0670   -4.1740   -0.0290 C   0  0  0  0  0  0  0  0  0  0  0  0
    1.6690    7.1760    0.1600 C   0  0  0  0  0  0  0  0  0  0  0  0
    3.5690    5.6980   -0.1430 C   0  0  0  0  0  0  0  0  0  0  0  0
   -0.8490   -4.9200   -0.8130 C   0  0  0  0  0  0  0  0  0  0  0  0
    1.0600   -4.8830    0.6930 C   0  0  0  0  0  0  0  0  0  0  0  0
    3.0620    7.0140   -0.0300 C   0  0  0  0  0  0  0  0  0  0  0  0
   -0.7750   -6.3240   -0.8740 C   0  0  0  0  0  0  0  0  0  0  0  0
    1.1330   -6.2870    0.6340 C   0  0  0  0  0  0  0  0  0  0  0  0
    3.9290    8.1450   -0.1050 C   0  0  0  0  0  0  0  0  0  0  0  0
    0.2160   -7.0080   -0.1500 C   0  0  0  0  0  0  0  0  0  0  0  0
    5.1500    8.1760    0.6160 C   0  0  0  0  0  0  0  0  0  0  0  0
    3.5950    9.2680   -0.9010 C   0  0  0  0  0  0  0  0  0  0  0  0
    6.0050    9.2910    0.5430 C   0  0  0  0  0  0  0  0  0  0  0  0
    4.4510   10.3830   -0.9760 C   0  0  0  0  0  0  0  0  0  0  0  0
    5.6560   10.3950   -0.2540 C   0  0  0  0  0  0  0  0  0  0  0  0
   -2.2690    2.1040    0.5020 H   0  0  0  0  0  0  0  0  0  0  0  0
    1.9460   -0.0140   -0.1390 H   0  0  0  0  0  0  0  0  0  0  0  0
   -2.2370   -0.2610    0.4230 H   0  0  0  0  0  0  0  0  0  0  0  0
    2.0670   -2.3890   -0.2500 H   0  0  0  0  0  0  0  0  0  0  0  0
   -2.1080   -2.6330    0.3330 H   0  0  0  0  0  0  0  0  0  0  0  0
   -0.1870    6.2220    0.3770 H   0  0  0  0  0  0  0  0  0  0  0  0
    3.1210    3.6480   -0.1610 H   0  0  0  0  0  0  0  0  0  0  0  0
    1.2640    8.1100    0.2630 H   0  0  0  0  0  0  0  0  0  0  0  0
    4.5680    5.5380   -0.2970 H   0  0  0  0  0  0  0  0  0  0  0  0
   -1.5700   -4.4450   -1.3620 H   0  0  0  0  0  0  0  0  0  0  0  0
    1.7300   -4.3840    1.2830 H   0  0  0  0  0  0  0  0  0  0  0  0
   -1.4410   -6.8470   -1.4470 H   0  0  0  0  0  0  0  0  0  0  0  0
    1.8520   -6.7850    1.1640 H   0  0  0  0  0  0  0  0  0  0  0  0
    0.2690   -8.0280   -0.1930 H   0  0  0  0  0  0  0  0  0  0  0  0
    5.4200    7.3910    1.2150 H   0  0  0  0  0  0  0  0  0  0  0  0
    2.7310    9.2790   -1.4490 H   0  0  0  0  0  0  0  0  0  0  0  0
    6.8800    9.3000    1.0720 H   0  0  0  0  0  0  0  0  0  0  0  0
    4.1970   11.1840   -1.5590 H   0  0  0  0  0  0  0  0  0  0  0  0
    6.2770   11.2050   -0.3070 H   0  0  0  0  0  0  0  0  0  0  0  0
  1  4  2  0  0  0  0
  1  2  1  0  0  0  0
  1  3  1  0  0  0  0
  2  6  2  0  0  0  0
  2  5  1  0  0  0  0
  3  7  1  0  0  0  0
  4 30  1  0  0  0  0
  4  8  1  0  0  0  0
  5  9  2  0  0  0  0
  5 31  1  0  0  0  0
  6 32  1  0  0  0  0
  6 10  1  0  0  0  0
  7  8  2  0  0  0  0
  7 11  1  0  0  0  0
  9 12  1  0  0  0  0
  9 33  1  0  0  0  0
 10 34  1  0  0  0  0
 10 12  2  0  0  0  0
 11 13  2  0  0  0  0
 11 14  1  0  0  0  0
 12 15  1  0  0  0  0
 13 35  1  0  0  0  0
 13 16  1  0  0  0  0
 14 17  2  0  0  0  0
 14 36  1  0  0  0  0
 15 19  2  0  0  0  0
 15 18  1  0  0  0  0
 16 37  1  0  0  0  0
 16 20  2  0  0  0  0
 17 20  1  0  0  0  0
 17 38  1  0  0  0  0
 18 21  2  0  0  0  0
 18 39  1  0  0  0  0
 19 40  1  0  0  0  0
 19 22  1  0  0  0  0
 20 23  1  0  0  0  0
 21 24  1  0  0  0  0
 21 41  1  0  0  0  0
 22 42  1  0  0  0  0
 22 24  2  0  0  0  0
 23 25  2  0  0  0  0
 23 26  1  0  0  0  0
 24 43  1  0  0  0  0
 25 44  1  0  0  0  0
 25 27  1  0  0  0  0
 26 28  2  0  0  0  0
 26 45  1  0  0  0  0
 27 46  1  0  0  0  0
 27 29  2  0  0  0  0
 28 29  1  0  0  0  0
 28 47  1  0  0  0  0
 29 48  1  0  0  0  0
M  END
