decoy-258
 OpenBabel06062114513D

 68 72  0  0  0  0  0  0  0  0999 V2000
    5.1870   -0.0240   -1.1200 C   0  0  0  0  0  0  0  0  0  0  0  0
    5.4250    1.4450   -0.8570 C   0  0  0  0  0  0  0  0  0  0  0  0
    3.7690   -0.2960   -1.1020 O   0  0  0  0  0  0  0  0  0  0  0  0
    5.7200   -0.4250   -2.5290 C   0  0  0  0  0  0  0  0  0  0  0  0
    5.7790   -0.8980   -0.1380 O   0  0  0  0  0  0  0  0  0  0  0  0
    6.4640    1.9760   -0.0330 C   0  0  0  0  0  0  0  0  0  0  0  0
    4.5760    2.3730   -1.5160 C   0  0  0  0  0  0  0  0  0  0  0  0
    3.4840   -0.8910    0.1580 C   0  0  0  0  0  0  0  0  0  0  0  0
    7.1220   -0.1910   -2.7000 N   0  0  0  0  0  0  0  0  0  0  0  0
    4.7470   -1.7190    0.3930 C   0  0  0  0  0  0  0  0  0  0  0  0
    6.6000    3.3720    0.1330 C   0  0  0  0  0  0  0  0  0  0  0  0
    7.6390    1.0440    0.7630 Cl  0  0  0  0  0  0  0  0  0  0  0  0
    4.7170    3.7600   -1.3470 C   0  0  0  0  0  0  0  0  0  0  0  0
    2.1750   -1.7090    0.1130 C   0  0  0  0  0  0  0  0  0  0  0  0
    8.1350   -0.9000   -2.1670 C   0  0  0  0  0  0  0  0  0  0  0  0
    7.6270    0.7630   -3.4220 N   0  0  0  0  0  0  0  0  0  0  0  0
    5.7290    4.2640   -0.5160 C   0  0  0  0  0  0  0  0  0  0  0  0
    1.0780   -0.8120   -0.1480 O   0  0  0  0  0  0  0  0  0  0  0  0
    9.2970   -0.3650   -2.5580 N   0  0  0  0  0  0  0  0  0  0  0  0
    8.9630    0.6710   -3.3380 C   0  0  0  0  0  0  0  0  0  0  0  0
    5.9080    5.9350   -0.3110 Cl  0  0  0  0  0  0  0  0  0  0  0  0
   -0.1340   -1.4420   -0.2180 C   0  0  0  0  0  0  0  0  0  0  0  0
   -0.9280   -1.5880    0.9340 C   0  0  0  0  0  0  0  0  0  0  0  0
   -0.6280   -1.8980   -1.4520 C   0  0  0  0  0  0  0  0  0  0  0  0
   -2.1860   -2.2120    0.8530 C   0  0  0  0  0  0  0  0  0  0  0  0
   -1.8890   -2.5170   -1.5270 C   0  0  0  0  0  0  0  0  0  0  0  0
   -2.7080   -2.6970   -0.3780 C   0  0  0  0  0  0  0  0  0  0  0  0
   -3.9430   -3.3070   -0.4540 N   0  0  0  0  0  0  0  0  0  0  0  0
   -4.5280   -4.0630    0.6360 C   0  0  0  0  0  0  0  0  0  0  0  0
   -4.7940   -3.2390   -1.6280 C   0  0  0  0  0  0  0  0  0  0  0  0
   -5.8760   -3.4330    1.0620 C   0  0  0  0  0  0  0  0  0  0  0  0
   -6.1780   -2.6410   -1.2520 C   0  0  0  0  0  0  0  0  0  0  0  0
   -6.8420   -3.3240   -0.0870 *   0  0  0  0  0  0  0  0  0  0  0  0
   -8.1860   -2.7270    0.2960 C   0  0  0  0  0  0  0  0  0  0  0  0
   -9.1890   -2.6510   -0.8980 C   0  0  0  0  0  0  0  0  0  0  0  0
   -8.8900   -3.4970    1.4570 C   0  0  0  0  0  0  0  0  0  0  0  0
    5.5170   -1.4850   -2.7080 H   0  0  0  0  0  0  0  0  0  0  0  0
    5.1660    0.1310   -3.2910 H   0  0  0  0  0  0  0  0  0  0  0  0
    3.8310    2.0450   -2.1370 H   0  0  0  0  0  0  0  0  0  0  0  0
    3.4010   -0.1100    0.9240 H   0  0  0  0  0  0  0  0  0  0  0  0
    4.7200   -2.6640   -0.1560 H   0  0  0  0  0  0  0  0  0  0  0  0
    4.9150   -1.9130    1.4540 H   0  0  0  0  0  0  0  0  0  0  0  0
    7.3450    3.7490    0.7240 H   0  0  0  0  0  0  0  0  0  0  0  0
    4.0820    4.3980   -1.8340 H   0  0  0  0  0  0  0  0  0  0  0  0
    2.2480   -2.4650   -0.6750 H   0  0  0  0  0  0  0  0  0  0  0  0
    2.0400   -2.2100    1.0760 H   0  0  0  0  0  0  0  0  0  0  0  0
    8.0460   -1.7160   -1.5590 H   0  0  0  0  0  0  0  0  0  0  0  0
    9.6240    1.2930   -3.8030 H   0  0  0  0  0  0  0  0  0  0  0  0
   -0.5930   -1.2320    1.8320 H   0  0  0  0  0  0  0  0  0  0  0  0
   -0.0620   -1.7920   -2.2980 H   0  0  0  0  0  0  0  0  0  0  0  0
   -2.7420   -2.2500    1.7080 H   0  0  0  0  0  0  0  0  0  0  0  0
   -2.1750   -2.8840   -2.4350 H   0  0  0  0  0  0  0  0  0  0  0  0
   -4.7130   -5.0860    0.2930 H   0  0  0  0  0  0  0  0  0  0  0  0
   -3.8810   -4.1600    1.5090 H   0  0  0  0  0  0  0  0  0  0  0  0
   -4.3910   -2.6100   -2.4240 H   0  0  0  0  0  0  0  0  0  0  0  0
   -4.9280   -4.2430   -2.0400 H   0  0  0  0  0  0  0  0  0  0  0  0
   -6.2790   -4.0810    1.8410 H   0  0  0  0  0  0  0  0  0  0  0  0
   -5.6890   -2.4470    1.4990 H   0  0  0  0  0  0  0  0  0  0  0  0
   -6.0530   -1.5750   -1.0350 H   0  0  0  0  0  0  0  0  0  0  0  0
   -6.7970   -2.7340   -2.1460 H   0  0  0  0  0  0  0  0  0  0  0  0
   -7.0320   -4.2820   -0.3900 H   0  0  0  0  0  0  0  0  0  0  0  0
   -8.0270   -1.7000    0.6430 H   0  0  0  0  0  0  0  0  0  0  0  0
   -8.8650   -1.9140   -1.6330 H   0  0  0  0  0  0  0  0  0  0  0  0
  -10.1830   -2.3420   -0.5670 H   0  0  0  0  0  0  0  0  0  0  0  0
   -9.2720   -3.6250   -1.3840 H   0  0  0  0  0  0  0  0  0  0  0  0
   -8.9320   -4.5640    1.2320 H   0  0  0  0  0  0  0  0  0  0  0  0
   -9.9080   -3.1350    1.6180 H   0  0  0  0  0  0  0  0  0  0  0  0
   -8.3590   -3.3530    2.3980 H   0  0  0  0  0  0  0  0  0  0  0  0
  1  4  1  0  0  0  0
  1  3  1  0  0  0  0
  1  2  1  0  0  0  0
  1  5  1  0  0  0  0
  2  6  2  0  0  0  0
  2  7  1  0  0  0  0
  3  8  1  0  0  0  0
  4  9  1  0  0  0  0
  4 37  1  0  0  0  0
  4 38  1  0  0  0  0
  5 10  1  0  0  0  0
  6 11  1  0  0  0  0
  6 12  1  0  0  0  0
  7 13  2  0  0  0  0
  7 39  1  0  0  0  0
  8 10  1  0  0  0  0
  8 40  1  0  0  0  0
  8 14  1  0  0  0  0
  9 15  1  0  0  0  0
  9 16  1  0  0  0  0
 10 42  1  0  0  0  0
 10 41  1  0  0  0  0
 11 43  1  0  0  0  0
 11 17  2  0  0  0  0
 13 17  1  0  0  0  0
 13 44  1  0  0  0  0
 14 46  1  0  0  0  0
 14 18  1  0  0  0  0
 14 45  1  0  0  0  0
 15 47  1  0  0  0  0
 15 19  2  0  0  0  0
 16 20  2  0  0  0  0
 17 21  1  0  0  0  0
 18 22  1  0  0  0  0
 19 20  1  0  0  0  0
 20 48  1  0  0  0  0
 22 23  2  0  0  0  0
 22 24  1  0  0  0  0
 23 49  1  0  0  0  0
 23 25  1  0  0  0  0
 24 26  2  0  0  0  0
 24 50  1  0  0  0  0
 25 51  1  0  0  0  0
 25 27  2  0  0  0  0
 26 27  1  0  0  0  0
 26 52  1  0  0  0  0
 27 28  1  0  0  0  0
 28 29  1  0  0  0  0
 28 30  1  0  0  0  0
 29 31  1  0  0  0  0
 29 54  1  0  0  0  0
 29 53  1  0  0  0  0
 30 32  1  0  0  0  0
 30 55  1  0  0  0  0
 30 56  1  0  0  0  0
 31 58  1  0  0  0  0
 31 57  1  0  0  0  0
 31 33  1  0  0  0  0
 32 59  1  0  0  0  0
 32 33  1  0  0  0  0
 32 60  1  0  0  0  0
 33 34  1  0  0  0  0
 33 61  1  0  0  0  0
 34 62  1  0  0  0  0
 34 36  1  0  0  0  0
 34 35  1  0  0  0  0
 35 64  1  0  0  0  0
 35 63  1  0  0  0  0
 35 65  1  0  0  0  0
 36 67  1  0  0  0  0
 36 68  1  0  0  0  0
 36 66  1  0  0  0  0
M  END
