decoy-14
 OpenBabel06062114503D

 23 22  0  0  0  0  0  0  0  0999 V2000
    0.0110    1.5040    0.0090 C   0  0  0  0  0  0  0  0  0  0  0  0
   -0.0620   -0.0730    0.0010 C   0  0  0  0  0  0  0  0  0  0  0  0
    1.4570    2.1390   -0.0010 C   0  0  0  0  0  0  0  0  0  0  0  0
   -0.6820    1.9790   -1.0830 F   0  0  0  0  0  0  0  0  0  0  0  0
   -0.6610    1.9670    1.1190 F   0  0  0  0  0  0  0  0  0  0  0  0
   -1.5070   -0.7020    0.0120 C   0  0  0  0  0  0  0  0  0  0  0  0
    0.6050   -0.5440   -1.1100 F   0  0  0  0  0  0  0  0  0  0  0  0
    0.6260   -0.5560    1.0930 F   0  0  0  0  0  0  0  0  0  0  0  0
    1.5230    3.7140    0.0070 C   0  0  0  0  0  0  0  0  0  0  0  0
    2.1560    1.6730    1.0910 F   0  0  0  0  0  0  0  0  0  0  0  0
    2.1350    1.6850   -1.1120 F   0  0  0  0  0  0  0  0  0  0  0  0
   -1.5680   -2.2640    0.0030 C   0  0  0  0  0  0  0  0  0  0  0  0
   -2.1980   -0.2690    1.1230 F   0  0  0  0  0  0  0  0  0  0  0  0
   -2.2200   -0.2570   -1.0820 F   0  0  0  0  0  0  0  0  0  0  0  0
    2.9570    4.3350   -0.0040 C   0  0  0  0  0  0  0  0  0  0  0  0
    0.8540    4.2160   -1.0880 F   0  0  0  0  0  0  0  0  0  0  0  0
    0.8740    4.2050    1.1180 F   0  0  0  0  0  0  0  0  0  0  0  0
   -0.9570   -2.8130    1.1060 F   0  0  0  0  0  0  0  0  0  0  0  0
   -2.8720   -2.7040    0.0140 F   0  0  0  0  0  0  0  0  0  0  0  0
   -0.9790   -2.8000   -1.1170 F   0  0  0  0  0  0  0  0  0  0  0  0
    3.6890    3.9620    1.0980 F   0  0  0  0  0  0  0  0  0  0  0  0
    3.6680    3.9740   -1.1230 F   0  0  0  0  0  0  0  0  0  0  0  0
    2.8810    6.4590    0.0080 I   0  0  0  0  0  0  0  0  0  0  0  0
  1  5  1  0  0  0  0
  1  2  1  0  0  0  0
  1  3  1  0  0  0  0
  1  4  1  0  0  0  0
  2  6  1  0  0  0  0
  2  8  1  0  0  0  0
  2  7  1  0  0  0  0
  3  9  1  0  0  0  0
  3 10  1  0  0  0  0
  3 11  1  0  0  0  0
  6 13  1  0  0  0  0
  6 12  1  0  0  0  0
  6 14  1  0  0  0  0
  9 17  1  0  0  0  0
  9 15  1  0  0  0  0
  9 16  1  0  0  0  0
 12 19  1  0  0  0  0
 12 18  1  0  0  0  0
 12 20  1  0  0  0  0
 15 23  1  0  0  0  0
 15 21  1  0  0  0  0
 15 22  1  0  0  0  0
M  END
