decoy-820
 OpenBabel06062114513D

 67 66  0  0  0  0  0  0  0  0999 V2000
    0.0810    1.5890    0.0090 C   0  0  0  0  0  0  0  0  0  0  0  0
    0.0580    0.0380    0.0010 C   0  0  0  0  0  0  0  0  0  0  0  0
    1.5220    2.1640   -0.0020 C   0  0  0  0  0  0  0  0  0  0  0  0
   -1.3830   -0.5380    0.0120 C   0  0  0  0  0  0  0  0  0  0  0  0
    1.5460    3.7160    0.0070 C   0  0  0  0  0  0  0  0  0  0  0  0
   -1.4070   -2.0890    0.0030 C   0  0  0  0  0  0  0  0  0  0  0  0
    2.9870    4.2910   -0.0040 C   0  0  0  0  0  0  0  0  0  0  0  0
   -2.8480   -2.6650    0.0140 C   0  0  0  0  0  0  0  0  0  0  0  0
    3.0100    5.8430    0.0040 C   0  0  0  0  0  0  0  0  0  0  0  0
   -2.8710   -4.2160    0.0060 C   0  0  0  0  0  0  0  0  0  0  0  0
    4.4510    6.4180   -0.0070 C   0  0  0  0  0  0  0  0  0  0  0  0
   -4.3120   -4.7920    0.0170 C   0  0  0  0  0  0  0  0  0  0  0  0
    4.4740    7.9710    0.0020 C   0  0  0  0  0  0  0  0  0  0  0  0
   -4.3350   -6.3430    0.0080 C   0  0  0  0  0  0  0  0  0  0  0  0
    5.8240    8.5690   -0.0080 C   0  0  0  0  0  0  0  0  0  0  0  0
   -5.7770   -6.9190    0.0190 C   0  0  0  0  0  0  0  0  0  0  0  0
    5.9500    9.9150   -0.0020 O   0  0  0  0  0  0  0  0  0  0  0  0
    6.9530    7.8260   -0.0230 O   0  0  0  0  0  0  0  0  0  0  0  0
   -5.8000   -8.4700    0.0110 C   0  0  0  0  0  0  0  0  0  0  0  0
   -7.2410   -9.0460    0.0220 C   0  0  0  0  0  0  0  0  0  0  0  0
   -7.2640  -10.5970    0.0140 C   0  0  0  0  0  0  0  0  0  0  0  0
   -8.7060  -11.1720    0.0240 C   0  0  0  0  0  0  0  0  0  0  0  0
   -8.7280  -12.7240    0.0160 C   0  0  0  0  0  0  0  0  0  0  0  0
  -10.1610  -13.2990    0.0270 C   0  0  0  0  0  0  0  0  0  0  0  0
   -0.4550    1.9580   -0.8700 H   0  0  0  0  0  0  0  0  0  0  0  0
   -0.4390    1.9480    0.9020 H   0  0  0  0  0  0  0  0  0  0  0  0
    0.5780   -0.3210   -0.8920 H   0  0  0  0  0  0  0  0  0  0  0  0
    0.5950   -0.3310    0.8800 H   0  0  0  0  0  0  0  0  0  0  0  0
    2.0590    1.7960    0.8770 H   0  0  0  0  0  0  0  0  0  0  0  0
    2.0420    1.8050   -0.8940 H   0  0  0  0  0  0  0  0  0  0  0  0
   -1.9030   -0.1790    0.9040 H   0  0  0  0  0  0  0  0  0  0  0  0
   -1.9200   -0.1690   -0.8670 H   0  0  0  0  0  0  0  0  0  0  0  0
    1.0090    4.0850   -0.8720 H   0  0  0  0  0  0  0  0  0  0  0  0
    1.0260    4.0750    0.8990 H   0  0  0  0  0  0  0  0  0  0  0  0
   -0.8870   -2.4480   -0.8890 H   0  0  0  0  0  0  0  0  0  0  0  0
   -0.8700   -2.4580    0.8820 H   0  0  0  0  0  0  0  0  0  0  0  0
    3.5240    3.9230    0.8750 H   0  0  0  0  0  0  0  0  0  0  0  0
    3.5070    3.9320   -0.8970 H   0  0  0  0  0  0  0  0  0  0  0  0
   -3.3680   -2.3060    0.9070 H   0  0  0  0  0  0  0  0  0  0  0  0
   -3.3840   -2.2960   -0.8650 H   0  0  0  0  0  0  0  0  0  0  0  0
    2.4730    6.2120   -0.8750 H   0  0  0  0  0  0  0  0  0  0  0  0
    2.4900    6.2020    0.8970 H   0  0  0  0  0  0  0  0  0  0  0  0
   -2.3510   -4.5750   -0.8870 H   0  0  0  0  0  0  0  0  0  0  0  0
   -2.3340   -4.5850    0.8850 H   0  0  0  0  0  0  0  0  0  0  0  0
    4.9870    6.0500    0.8730 H   0  0  0  0  0  0  0  0  0  0  0  0
    4.9700    6.0590   -0.9000 H   0  0  0  0  0  0  0  0  0  0  0  0
   -4.8320   -4.4330    0.9090 H   0  0  0  0  0  0  0  0  0  0  0  0
   -4.8490   -4.4230   -0.8620 H   0  0  0  0  0  0  0  0  0  0  0  0
    3.9380    8.3390   -0.8760 H   0  0  0  0  0  0  0  0  0  0  0  0
    3.9550    8.3290    0.8930 H   0  0  0  0  0  0  0  0  0  0  0  0
   -3.8160   -6.7020   -0.8840 H   0  0  0  0  0  0  0  0  0  0  0  0
   -3.7990   -6.7120    0.8870 H   0  0  0  0  0  0  0  0  0  0  0  0
   -6.2970   -6.5600    0.9120 H   0  0  0  0  0  0  0  0  0  0  0  0
   -6.3130   -6.5500   -0.8600 H   0  0  0  0  0  0  0  0  0  0  0  0
   -5.2800   -8.8290   -0.8820 H   0  0  0  0  0  0  0  0  0  0  0  0
   -5.2630   -8.8390    0.8900 H   0  0  0  0  0  0  0  0  0  0  0  0
   -7.7610   -8.6860    0.9140 H   0  0  0  0  0  0  0  0  0  0  0  0
   -7.7780   -8.6770   -0.8570 H   0  0  0  0  0  0  0  0  0  0  0  0
   -6.7450  -10.9560   -0.8790 H   0  0  0  0  0  0  0  0  0  0  0  0
   -6.7280  -10.9660    0.8920 H   0  0  0  0  0  0  0  0  0  0  0  0
   -9.2260  -10.8140    0.9170 H   0  0  0  0  0  0  0  0  0  0  0  0
   -9.2430  -10.8040   -0.8550 H   0  0  0  0  0  0  0  0  0  0  0  0
   -8.2120  -13.0890   -0.8760 H   0  0  0  0  0  0  0  0  0  0  0  0
   -8.1950  -13.0990    0.8940 H   0  0  0  0  0  0  0  0  0  0  0  0
  -10.1210  -14.3900    0.0200 H   0  0  0  0  0  0  0  0  0  0  0  0
  -10.6950  -12.9760    0.9230 H   0  0  0  0  0  0  0  0  0  0  0  0
  -10.7120  -12.9660   -0.8550 H   0  0  0  0  0  0  0  0  0  0  0  0
  1 26  1  0  0  0  0
  1  2  1  0  0  0  0
  1  3  1  0  0  0  0
  1 25  1  0  0  0  0
  2  4  1  0  0  0  0
  2 28  1  0  0  0  0
  2 27  1  0  0  0  0
  3  5  1  0  0  0  0
  3 29  1  0  0  0  0
  3 30  1  0  0  0  0
  4 31  1  0  0  0  0
  4  6  1  0  0  0  0
  4 32  1  0  0  0  0
  5 34  1  0  0  0  0
  5  7  1  0  0  0  0
  5 33  1  0  0  0  0
  6  8  1  0  0  0  0
  6 36  1  0  0  0  0
  6 35  1  0  0  0  0
  7  9  1  0  0  0  0
  7 37  1  0  0  0  0
  7 38  1  0  0  0  0
  8 39  1  0  0  0  0
  8 10  1  0  0  0  0
  8 40  1  0  0  0  0
  9 42  1  0  0  0  0
  9 11  1  0  0  0  0
  9 41  1  0  0  0  0
 10 12  1  0  0  0  0
 10 44  1  0  0  0  0
 10 43  1  0  0  0  0
 11 13  1  0  0  0  0
 11 45  1  0  0  0  0
 11 46  1  0  0  0  0
 12 47  1  0  0  0  0
 12 14  1  0  0  0  0
 12 48  1  0  0  0  0
 13 50  1  0  0  0  0
 13 15  1  0  0  0  0
 13 49  1  0  0  0  0
 14 16  1  0  0  0  0
 14 52  1  0  0  0  0
 14 51  1  0  0  0  0
 15 17  1  0  0  0  0
 15 18  2  0  0  0  0
 16 53  1  0  0  0  0
 16 19  1  0  0  0  0
 16 54  1  0  0  0  0
 19 20  1  0  0  0  0
 19 56  1  0  0  0  0
 19 55  1  0  0  0  0
 20 57  1  0  0  0  0
 20 21  1  0  0  0  0
 20 58  1  0  0  0  0
 21 22  1  0  0  0  0
 21 60  1  0  0  0  0
 21 59  1  0  0  0  0
 22 61  1  0  0  0  0
 22 23  1  0  0  0  0
 22 62  1  0  0  0  0
 23 24  1  0  0  0  0
 23 64  1  0  0  0  0
 23 63  1  0  0  0  0
 24 66  1  0  0  0  0
 24 65  1  0  0  0  0
 24 67  1  0  0  0  0
M  END
