decoy-173
 OpenBabel06062114503D

 48 49  0  0  0  0  0  0  0  0999 V2000
   -0.0930    1.1610    0.1510 C   0  0  0  0  0  0  0  0  0  0  0  0
    0.0470    0.0620   -0.7390 C   0  0  0  0  0  0  0  0  0  0  0  0
    0.9100    1.3820    1.1250 C   0  0  0  0  0  0  0  0  0  0  0  0
   -1.1690    2.0270    0.0960 C   0  0  0  0  0  0  0  0  0  0  0  0
    1.1570   -0.7990   -0.6290 C   0  0  0  0  0  0  0  0  0  0  0  0
   -0.8500   -0.2010   -1.7260 O   0  0  0  0  0  0  0  0  0  0  0  0
    2.0180    0.5200    1.2250 C   0  0  0  0  0  0  0  0  0  0  0  0
   -2.3730    1.5800    0.0620 N   0  0  0  0  0  0  0  0  0  0  0  0
    2.1400   -0.5720    0.3500 C   0  0  0  0  0  0  0  0  0  0  0  0
   -3.5680    2.2960    0.0330 C   0  0  0  0  0  0  0  0  0  0  0  0
   -4.3750    1.9390   -1.2400 C   0  0  0  0  0  0  0  0  0  0  0  0
   -5.7370    2.6780   -1.3110 C   0  0  0  0  0  0  0  0  0  0  0  0
   -6.5450    2.3200   -2.5860 C   0  0  0  0  0  0  0  0  0  0  0  0
   -7.9070    3.0600   -2.6570 C   0  0  0  0  0  0  0  0  0  0  0  0
   -8.7140    2.7020   -3.9290 C   0  0  0  0  0  0  0  0  0  0  0  0
   -9.9400    3.3650   -3.9250 N   0  0  0  0  0  0  0  0  0  0  0  0
  -10.4060    4.1970   -4.7850 C   0  0  0  0  0  0  0  0  0  0  0  0
  -11.6680    4.7420   -4.6320 C   0  0  0  0  0  0  0  0  0  0  0  0
  -12.0990    5.3340   -3.4150 C   0  0  0  0  0  0  0  0  0  0  0  0
  -12.5590    4.7150   -5.7320 C   0  0  0  0  0  0  0  0  0  0  0  0
  -13.4020    5.8610   -3.3090 C   0  0  0  0  0  0  0  0  0  0  0  0
  -11.2960    5.4340   -2.3220 O   0  0  0  0  0  0  0  0  0  0  0  0
  -13.8560    5.2480   -5.6190 C   0  0  0  0  0  0  0  0  0  0  0  0
  -14.2790    5.8180   -4.4060 C   0  0  0  0  0  0  0  0  0  0  0  0
    0.8400    2.1680    1.7780 H   0  0  0  0  0  0  0  0  0  0  0  0
   -1.0020    3.0070    0.1390 H   0  0  0  0  0  0  0  0  0  0  0  0
    1.2570   -1.5920   -1.2680 H   0  0  0  0  0  0  0  0  0  0  0  0
   -1.3500    0.6290   -1.8670 H   0  0  0  0  0  0  0  0  0  0  0  0
    2.7340    0.6870    1.9360 H   0  0  0  0  0  0  0  0  0  0  0  0
    2.9440   -1.1990    0.4230 H   0  0  0  0  0  0  0  0  0  0  0  0
   -4.1440    2.0190    0.9190 H   0  0  0  0  0  0  0  0  0  0  0  0
   -3.3950    3.3760    0.0640 H   0  0  0  0  0  0  0  0  0  0  0  0
   -3.7800    2.2010   -2.1200 H   0  0  0  0  0  0  0  0  0  0  0  0
   -4.5530    0.8600   -1.2580 H   0  0  0  0  0  0  0  0  0  0  0  0
   -6.3290    2.4170   -0.4290 H   0  0  0  0  0  0  0  0  0  0  0  0
   -5.5580    3.7570   -1.2940 H   0  0  0  0  0  0  0  0  0  0  0  0
   -5.9520    2.5800   -3.4680 H   0  0  0  0  0  0  0  0  0  0  0  0
   -6.7250    1.2410   -2.6020 H   0  0  0  0  0  0  0  0  0  0  0  0
   -8.5000    2.8010   -1.7750 H   0  0  0  0  0  0  0  0  0  0  0  0
   -7.7290    4.1390   -2.6430 H   0  0  0  0  0  0  0  0  0  0  0  0
   -8.1230    2.9480   -4.8170 H   0  0  0  0  0  0  0  0  0  0  0  0
   -8.9170    1.6290   -3.9430 H   0  0  0  0  0  0  0  0  0  0  0  0
   -9.8820    4.4160   -5.6020 H   0  0  0  0  0  0  0  0  0  0  0  0
  -12.2750    4.2990   -6.6240 H   0  0  0  0  0  0  0  0  0  0  0  0
  -13.7140    6.2860   -2.4320 H   0  0  0  0  0  0  0  0  0  0  0  0
  -10.3790    5.3270   -2.6490 H   0  0  0  0  0  0  0  0  0  0  0  0
  -14.4930    5.2180   -6.4180 H   0  0  0  0  0  0  0  0  0  0  0  0
  -15.2220    6.2050   -4.3240 H   0  0  0  0  0  0  0  0  0  0  0  0
  1  3  2  0  0  0  0
  1  2  1  0  0  0  0
  1  4  1  0  0  0  0
  2  5  2  0  0  0  0
  2  6  1  0  0  0  0
  3  7  1  0  0  0  0
  3 25  1  0  0  0  0
  4 26  1  0  0  0  0
  4  8  2  0  0  0  0
  5  9  1  0  0  0  0
  5 27  1  0  0  0  0
  6 28  1  0  0  0  0
  7 29  1  0  0  0  0
  7  9  2  0  0  0  0
  8 10  1  0  0  0  0
  9 30  1  0  0  0  0
 10 32  1  0  0  0  0
 10 31  1  0  0  0  0
 10 11  1  0  0  0  0
 11 12  1  0  0  0  0
 11 33  1  0  0  0  0
 11 34  1  0  0  0  0
 12 36  1  0  0  0  0
 12 35  1  0  0  0  0
 12 13  1  0  0  0  0
 13 14  1  0  0  0  0
 13 37  1  0  0  0  0
 13 38  1  0  0  0  0
 14 40  1  0  0  0  0
 14 39  1  0  0  0  0
 14 15  1  0  0  0  0
 15 16  1  0  0  0  0
 15 41  1  0  0  0  0
 15 42  1  0  0  0  0
 16 17  2  0  0  0  0
 17 18  1  0  0  0  0
 17 43  1  0  0  0  0
 18 19  2  0  0  0  0
 18 20  1  0  0  0  0
 19 21  1  0  0  0  0
 19 22  1  0  0  0  0
 20 23  2  0  0  0  0
 20 44  1  0  0  0  0
 21 45  1  0  0  0  0
 21 24  2  0  0  0  0
 22 46  1  0  0  0  0
 23 24  1  0  0  0  0
 23 47  1  0  0  0  0
 24 48  1  0  0  0  0
M  END
