decoy-129
 OpenBabel06062114503D

 70 70  0  0  0  0  0  0  0  0999 V2000
    0.1330    1.4340   -0.1520 C   0  0  0  0  0  0  0  0  0  0  0  0
    1.4740    1.8290   -0.6960 C   0  0  0  0  0  0  0  0  0  0  0  0
   -0.8170    1.8310   -1.1650 O   0  0  0  0  0  0  0  0  0  0  0  0
    0.0910   -0.1290   -0.0300 C   0  0  0  0  0  0  0  0  0  0  0  0
   -0.3060    2.1850    1.1580 C   0  0  0  0  0  0  0  0  0  0  0  0
    1.2560    2.5960   -1.9500 C   0  0  0  0  0  0  0  0  0  0  0  0
    2.3360    2.4260    0.1730 O   0  0  0  0  0  0  0  0  0  0  0  0
   -0.1060    2.0140   -2.3870 C   0  0  0  0  0  0  0  0  0  0  0  0
   -1.3010   -0.7440    0.2930 C   0  0  0  0  0  0  0  0  0  0  0  0
    0.3450    1.7350    2.4990 C   0  0  0  0  0  0  0  0  0  0  0  0
    1.1530    4.1430   -1.7490 C   0  0  0  0  0  0  0  0  0  0  0  0
    2.3770    2.2700   -2.9790 C   0  0  0  0  0  0  0  0  0  0  0  0
   -1.2650   -2.2940    0.3630 C   0  0  0  0  0  0  0  0  0  0  0  0
   -0.0560    2.6450    3.6910 C   0  0  0  0  0  0  0  0  0  0  0  0
   -2.5600   -2.9310    0.6710 C   0  0  0  0  0  0  0  0  0  0  0  0
    0.5710    2.1830    5.0330 C   0  0  0  0  0  0  0  0  0  0  0  0
   -2.6320   -4.2780    0.7550 O   0  0  0  0  0  0  0  0  0  0  0  0
   -3.6930   -2.2210    0.8770 O   0  0  0  0  0  0  0  0  0  0  0  0
    0.1670    3.0900    6.2260 C   0  0  0  0  0  0  0  0  0  0  0  0
    0.7920    2.6250    7.5670 C   0  0  0  0  0  0  0  0  0  0  0  0
    0.3840    3.5280    8.7620 C   0  0  0  0  0  0  0  0  0  0  0  0
    1.0090    3.0600   10.1030 C   0  0  0  0  0  0  0  0  0  0  0  0
    0.6010    3.9620   11.2980 C   0  0  0  0  0  0  0  0  0  0  0  0
    1.2260    3.4930   12.6400 C   0  0  0  0  0  0  0  0  0  0  0  0
    0.8180    4.3940   13.8350 C   0  0  0  0  0  0  0  0  0  0  0  0
    1.4440    3.9250   15.1750 C   0  0  0  0  0  0  0  0  0  0  0  0
    1.0380    4.8200   16.3680 C   0  0  0  0  0  0  0  0  0  0  0  0
    0.4260   -0.5600   -0.9780 H   0  0  0  0  0  0  0  0  0  0  0  0
    0.8100   -0.4460    0.7290 H   0  0  0  0  0  0  0  0  0  0  0  0
   -0.1070    3.2490    1.0210 H   0  0  0  0  0  0  0  0  0  0  0  0
   -1.3890    2.0850    1.2700 H   0  0  0  0  0  0  0  0  0  0  0  0
    3.1800    2.5070   -0.3190 H   0  0  0  0  0  0  0  0  0  0  0  0
    0.0020    1.0470   -2.8880 H   0  0  0  0  0  0  0  0  0  0  0  0
   -0.6590    2.6830   -3.0490 H   0  0  0  0  0  0  0  0  0  0  0  0
   -1.6560   -0.3620    1.2520 H   0  0  0  0  0  0  0  0  0  0  0  0
   -2.0130   -0.4410   -0.4790 H   0  0  0  0  0  0  0  0  0  0  0  0
    0.0330    0.7140    2.7280 H   0  0  0  0  0  0  0  0  0  0  0  0
    1.4320    1.7390    2.4070 H   0  0  0  0  0  0  0  0  0  0  0  0
    0.9320    4.6380   -2.6970 H   0  0  0  0  0  0  0  0  0  0  0  0
    0.3600    4.3980   -1.0440 H   0  0  0  0  0  0  0  0  0  0  0  0
    2.0930    4.5470   -1.3670 H   0  0  0  0  0  0  0  0  0  0  0  0
    2.1520    2.7230   -3.9470 H   0  0  0  0  0  0  0  0  0  0  0  0
    3.3370    2.6550   -2.6300 H   0  0  0  0  0  0  0  0  0  0  0  0
    2.4750    1.1910   -3.1190 H   0  0  0  0  0  0  0  0  0  0  0  0
   -0.9200   -2.6860   -0.5970 H   0  0  0  0  0  0  0  0  0  0  0  0
   -0.5500   -2.5990    1.1310 H   0  0  0  0  0  0  0  0  0  0  0  0
    0.2670    3.6690    3.4820 H   0  0  0  0  0  0  0  0  0  0  0  0
   -1.1450    2.6440    3.7880 H   0  0  0  0  0  0  0  0  0  0  0  0
    0.2500    1.1580    5.2410 H   0  0  0  0  0  0  0  0  0  0  0  0
    1.6600    2.1860    4.9370 H   0  0  0  0  0  0  0  0  0  0  0  0
    0.4880    4.1150    6.0190 H   0  0  0  0  0  0  0  0  0  0  0  0
   -0.9230    3.0870    6.3210 H   0  0  0  0  0  0  0  0  0  0  0  0
    0.4730    1.5990    7.7720 H   0  0  0  0  0  0  0  0  0  0  0  0
    1.8820    2.6310    7.4730 H   0  0  0  0  0  0  0  0  0  0  0  0
    0.7040    4.5530    8.5580 H   0  0  0  0  0  0  0  0  0  0  0  0
   -0.7050    3.5230    8.8560 H   0  0  0  0  0  0  0  0  0  0  0  0
    0.6890    2.0340   10.3060 H   0  0  0  0  0  0  0  0  0  0  0  0
    2.0990    3.0660   10.0090 H   0  0  0  0  0  0  0  0  0  0  0  0
    0.9220    4.9880   11.0960 H   0  0  0  0  0  0  0  0  0  0  0  0
   -0.4880    3.9570   11.3920 H   0  0  0  0  0  0  0  0  0  0  0  0
    0.9060    2.4670   12.8420 H   0  0  0  0  0  0  0  0  0  0  0  0
    2.3160    3.4980   12.5460 H   0  0  0  0  0  0  0  0  0  0  0  0
    1.1380    5.4210   13.6330 H   0  0  0  0  0  0  0  0  0  0  0  0
   -0.2710    4.3890   13.9300 H   0  0  0  0  0  0  0  0  0  0  0  0
    1.1260    2.9000   15.3850 H   0  0  0  0  0  0  0  0  0  0  0  0
    2.5340    3.9330   15.0890 H   0  0  0  0  0  0  0  0  0  0  0  0
    1.5040    4.4480   17.2830 H   0  0  0  0  0  0  0  0  0  0  0  0
    1.3670    5.8470   16.2020 H   0  0  0  0  0  0  0  0  0  0  0  0
   -0.0450    4.8100   16.5000 H   0  0  0  0  0  0  0  0  0  0  0  0
    1.9330    0.9590   -0.9760 H   0  0  0  0  0  0  0  0  0  0  0  0
  1  4  1  0  0  0  0
  1  5  1  0  0  0  0
  1  2  1  0  0  0  0
  1  3  1  0  0  0  0
  2  7  1  0  0  0  0
  2  6  1  0  0  0  0
  2 70  1  0  0  0  0
  3  8  1  0  0  0  0
  4  9  1  0  0  0  0
  4 29  1  0  0  0  0
  4 28  1  0  0  0  0
  5 31  1  0  0  0  0
  5 10  1  0  0  0  0
  5 30  1  0  0  0  0
  6 11  1  0  0  0  0
  6  8  1  0  0  0  0
  6 12  1  0  0  0  0
  7 32  1  0  0  0  0
  8 33  1  0  0  0  0
  8 34  1  0  0  0  0
  9 13  1  0  0  0  0
  9 35  1  0  0  0  0
  9 36  1  0  0  0  0
 10 37  1  0  0  0  0
 10 14  1  0  0  0  0
 10 38  1  0  0  0  0
 11 41  1  0  0  0  0
 11 40  1  0  0  0  0
 11 39  1  0  0  0  0
 12 43  1  0  0  0  0
 12 42  1  0  0  0  0
 12 44  1  0  0  0  0
 13 15  1  0  0  0  0
 13 46  1  0  0  0  0
 13 45  1  0  0  0  0
 14 48  1  0  0  0  0
 14 16  1  0  0  0  0
 14 47  1  0  0  0  0
 15 17  2  0  0  0  0
 15 18  1  0  0  0  0
 16 49  1  0  0  0  0
 16 19  1  0  0  0  0
 16 50  1  0  0  0  0
 19 52  1  0  0  0  0
 19 20  1  0  0  0  0
 19 51  1  0  0  0  0
 20 53  1  0  0  0  0
 20 21  1  0  0  0  0
 20 54  1  0  0  0  0
 21 56  1  0  0  0  0
 21 22  1  0  0  0  0
 21 55  1  0  0  0  0
 22 57  1  0  0  0  0
 22 23  1  0  0  0  0
 22 58  1  0  0  0  0
 23 60  1  0  0  0  0
 23 24  1  0  0  0  0
 23 59  1  0  0  0  0
 24 61  1  0  0  0  0
 24 25  1  0  0  0  0
 24 62  1  0  0  0  0
 25 64  1  0  0  0  0
 25 26  1  0  0  0  0
 25 63  1  0  0  0  0
 26 65  1  0  0  0  0
 26 27  1  0  0  0  0
 26 66  1  0  0  0  0
 27 69  1  0  0  0  0
 27 67  1  0  0  0  0
 27 68  1  0  0  0  0
M  END
