decoy-203
 OpenBabel06062114503D

 71 74  0  0  0  0  0  0  0  0999 V2000
   -1.2380    1.5940   -1.7350 C   0  0  0  0  0  0  0  0  0  0  0  0
   -0.0680    2.3400   -0.9670 C   0  0  0  0  0  0  0  0  0  0  0  0
   -1.2990    2.3830   -3.0920 C   0  0  0  0  0  0  0  0  0  0  0  0
   -2.5340    1.5470   -1.0210 C   0  0  0  0  0  0  0  0  0  0  0  0
   -0.8400    0.2110   -1.9390 O   0  0  0  0  0  0  0  0  0  0  0  0
    0.9620    2.4900   -2.1350 C   0  0  0  0  0  0  0  0  0  0  0  0
    0.6490    1.5280    0.1720 C   0  0  0  0  0  0  0  0  0  0  0  0
   -0.5720    3.7180   -0.3770 C   0  0  0  0  0  0  0  0  0  0  0  0
    0.1120    2.9880   -3.3260 C   0  0  0  0  0  0  0  0  0  0  0  0
   -2.9800    0.3930   -0.2500 C   0  0  0  0  0  0  0  0  0  0  0  0
   -3.2490    2.5420   -0.9990 O   0  0  0  0  0  0  0  0  0  0  0  0
   -0.4580   -0.6600   -2.9130 C   0  0  0  0  0  0  0  0  0  0  0  0
    2.2860    3.2240   -1.7370 C   0  0  0  0  0  0  0  0  0  0  0  0
    2.0380    2.0960    0.6160 C   0  0  0  0  0  0  0  0  0  0  0  0
   -4.2020    0.6240    0.4650 O   0  0  0  0  0  0  0  0  0  0  0  0
   -0.1540   -1.9460   -2.6010 O   0  0  0  0  0  0  0  0  0  0  0  0
   -0.3020   -0.2950   -4.2030 O   0  0  0  0  0  0  0  0  0  0  0  0
    3.0130    2.4250   -0.5810 C   0  0  0  0  0  0  0  0  0  0  0  0
    3.2300    3.3810   -2.9690 C   0  0  0  0  0  0  0  0  0  0  0  0
    1.8630    3.1830    1.5200 O   0  0  0  0  0  0  0  0  0  0  0  0
   -4.8490   -0.2660    1.2640 C   0  0  0  0  0  0  0  0  0  0  0  0
   -0.2050   -2.5830   -1.3170 C   0  0  0  0  0  0  0  0  0  0  0  0
    4.4420    3.0300   -0.2140 C   0  0  0  0  0  0  0  0  0  0  0  0
    4.6080    3.9690   -2.5830 C   0  0  0  0  0  0  0  0  0  0  0  0
   -6.1000    0.1680    1.9150 C   0  0  0  0  0  0  0  0  0  0  0  0
   -4.3450   -1.5110    1.4480 O   0  0  0  0  0  0  0  0  0  0  0  0
    1.2050   -3.0500   -0.9110 C   0  0  0  0  0  0  0  0  0  0  0  0
    5.2070    3.1880   -1.4950 C   0  0  0  0  0  0  0  0  0  0  0  0
    5.1360    2.1170    0.7280 C   0  0  0  0  0  0  0  0  0  0  0  0
    4.3990    4.4270    0.5020 C   0  0  0  0  0  0  0  0  0  0  0  0
   -6.7780   -0.8960    2.8070 C   0  0  0  0  0  0  0  0  0  0  0  0
    6.3940    2.5660   -1.6850 C   0  0  0  0  0  0  0  0  0  0  0  0
    6.3160    1.5380    0.4520 C   0  0  0  0  0  0  0  0  0  0  0  0
    6.9450    1.7660   -0.7310 C   0  0  0  0  0  0  0  0  0  0  0  0
    8.0250    1.2300   -0.9440 O   0  0  0  0  0  0  0  0  0  0  0  0
    1.2950    1.4880   -2.4330 H   0  0  0  0  0  0  0  0  0  0  0  0
    2.0460    4.2300   -1.3930 H   0  0  0  0  0  0  0  0  0  0  0  0
    3.2320    1.4390   -1.0140 H   0  0  0  0  0  0  0  0  0  0  0  0
   -1.6150    1.7500   -3.9200 H   0  0  0  0  0  0  0  0  0  0  0  0
   -2.0170    3.2070   -3.0530 H   0  0  0  0  0  0  0  0  0  0  0  0
   -0.0060    1.4540    1.0430 H   0  0  0  0  0  0  0  0  0  0  0  0
    0.8270    0.5030   -0.1640 H   0  0  0  0  0  0  0  0  0  0  0  0
   -1.1530    4.2870   -1.1020 H   0  0  0  0  0  0  0  0  0  0  0  0
    0.2340    4.3680   -0.0620 H   0  0  0  0  0  0  0  0  0  0  0  0
   -1.2080    3.5460    0.4930 H   0  0  0  0  0  0  0  0  0  0  0  0
    0.5300    2.6520   -4.2790 H   0  0  0  0  0  0  0  0  0  0  0  0
    0.0710    4.0810   -3.3300 H   0  0  0  0  0  0  0  0  0  0  0  0
   -3.1330   -0.4490   -0.9290 H   0  0  0  0  0  0  0  0  0  0  0  0
   -2.2040    0.1290    0.4720 H   0  0  0  0  0  0  0  0  0  0  0  0
    2.4960    1.3080    1.2200 H   0  0  0  0  0  0  0  0  0  0  0  0
    3.3850    2.4080   -3.4450 H   0  0  0  0  0  0  0  0  0  0  0  0
    2.7670    4.0430   -3.7060 H   0  0  0  0  0  0  0  0  0  0  0  0
    1.7690    3.9790    0.9620 H   0  0  0  0  0  0  0  0  0  0  0  0
   -0.5970   -1.9180   -0.5440 H   0  0  0  0  0  0  0  0  0  0  0  0
   -0.8680   -3.4480   -1.3890 H   0  0  0  0  0  0  0  0  0  0  0  0
    5.2310    3.9880   -3.4830 H   0  0  0  0  0  0  0  0  0  0  0  0
    4.4870    5.0080   -2.2690 H   0  0  0  0  0  0  0  0  0  0  0  0
   -5.8810    1.0450    2.5270 H   0  0  0  0  0  0  0  0  0  0  0  0
   -6.8050    0.4670    1.1350 H   0  0  0  0  0  0  0  0  0  0  0  0
    1.6000   -3.7420   -1.6570 H   0  0  0  0  0  0  0  0  0  0  0  0
    1.1660   -3.5560    0.0550 H   0  0  0  0  0  0  0  0  0  0  0  0
    1.8740   -2.1910   -0.8330 H   0  0  0  0  0  0  0  0  0  0  0  0
    4.7360    1.9450    1.6220 H   0  0  0  0  0  0  0  0  0  0  0  0
    3.7410    5.1260   -0.0120 H   0  0  0  0  0  0  0  0  0  0  0  0
    5.3980    4.8720    0.5350 H   0  0  0  0  0  0  0  0  0  0  0  0
    4.0530    4.3520    1.5330 H   0  0  0  0  0  0  0  0  0  0  0  0
   -7.0410   -1.7770    2.2180 H   0  0  0  0  0  0  0  0  0  0  0  0
   -7.6910   -0.4850    3.2420 H   0  0  0  0  0  0  0  0  0  0  0  0
   -6.1110   -1.1950    3.6180 H   0  0  0  0  0  0  0  0  0  0  0  0
    6.8800    2.6750   -2.5470 H   0  0  0  0  0  0  0  0  0  0  0  0
    6.7370    0.9460    1.1330 H   0  0  0  0  0  0  0  0  0  0  0  0
  1  4  1  0  0  0  0
  1  2  1  0  0  0  0
  1  3  1  0  0  0  0
  1  5  1  0  0  0  0
  2  6  1  0  0  0  0
  2  8  1  0  0  0  0
  2  7  1  0  0  0  0
  3 40  1  0  0  0  0
  3  9  1  0  0  0  0
  3 39  1  0  0  0  0
  4 11  2  0  0  0  0
  4 10  1  0  0  0  0
  5 12  1  0  0  0  0
  6 13  1  0  0  0  0
  6  9  1  0  0  0  0
  6 36  1  0  0  0  0
  7 14  1  0  0  0  0
  7 41  1  0  0  0  0
  7 42  1  0  0  0  0
  8 44  1  0  0  0  0
  8 45  1  0  0  0  0
  8 43  1  0  0  0  0
  9 46  1  0  0  0  0
  9 47  1  0  0  0  0
 10 15  1  0  0  0  0
 10 49  1  0  0  0  0
 10 48  1  0  0  0  0
 12 16  1  0  0  0  0
 12 17  2  0  0  0  0
 13 37  1  0  0  0  0
 13 18  1  0  0  0  0
 13 19  1  0  0  0  0
 14 18  1  0  0  0  0
 14 50  1  0  0  0  0
 14 20  1  0  0  0  0
 15 21  1  0  0  0  0
 16 22  1  0  0  0  0
 18 23  1  0  0  0  0
 18 38  1  0  0  0  0
 19 24  1  0  0  0  0
 19 51  1  0  0  0  0
 19 52  1  0  0  0  0
 20 53  1  0  0  0  0
 21 26  2  0  0  0  0
 21 25  1  0  0  0  0
 22 27  1  0  0  0  0
 22 54  1  0  0  0  0
 22 55  1  0  0  0  0
 23 30  1  0  0  0  0
 23 29  1  0  0  0  0
 23 28  1  0  0  0  0
 24 57  1  0  0  0  0
 24 28  1  0  0  0  0
 24 56  1  0  0  0  0
 25 58  1  0  0  0  0
 25 31  1  0  0  0  0
 25 59  1  0  0  0  0
 27 62  1  0  0  0  0
 27 61  1  0  0  0  0
 27 60  1  0  0  0  0
 28 32  2  0  0  0  0
 29 63  1  0  0  0  0
 29 33  2  0  0  0  0
 30 65  1  0  0  0  0
 30 66  1  0  0  0  0
 30 64  1  0  0  0  0
 31 68  1  0  0  0  0
 31 69  1  0  0  0  0
 31 67  1  0  0  0  0
 32 34  1  0  0  0  0
 32 70  1  0  0  0  0
 33 71  1  0  0  0  0
 33 34  1  0  0  0  0
 34 35  2  0  0  0  0
M  END
