decoy-518
 OpenBabel06062114513D

 30 32  0  0  0  0  0  0  0  0999 V2000
    0.0490    1.4280    0.0010 C   0  0  0  0  0  0  0  0  0  0  0  0
    0.0510    0.0020   -0.0070 C   0  0  0  0  0  0  0  0  0  0  0  0
    1.2710    2.1170   -0.0300 C   0  0  0  0  0  0  0  0  0  0  0  0
   -1.1910    2.1170    0.0200 C   0  0  0  0  0  0  0  0  0  0  0  0
    1.2730   -0.6850   -0.0440 C   0  0  0  0  0  0  0  0  0  0  0  0
   -1.1870   -0.6880    0.0030 C   0  0  0  0  0  0  0  0  0  0  0  0
    2.4630    1.4310   -0.3050 C   0  0  0  0  0  0  0  0  0  0  0  0
    1.3120    3.2960    0.3040 O   0  0  0  0  0  0  0  0  0  0  0  0
   -2.4130    1.4180    0.0420 C   0  0  0  0  0  0  0  0  0  0  0  0
    2.4660    0.0050   -0.3120 C   0  0  0  0  0  0  0  0  0  0  0  0
    1.3150   -1.8670    0.2790 O   0  0  0  0  0  0  0  0  0  0  0  0
   -2.4040    0.0120    0.0290 C   0  0  0  0  0  0  0  0  0  0  0  0
    3.6650    2.1230   -0.5970 C   0  0  0  0  0  0  0  0  0  0  0  0
   -3.9190    2.2920    0.0570 S   0  0  0  0  0  0  0  0  0  0  0  0
    3.6700   -0.6820   -0.6090 C   0  0  0  0  0  0  0  0  0  0  0  0
    4.8500    1.4240   -0.8820 C   0  0  0  0  0  0  0  0  0  0  0  0
   -4.2810    2.7840   -1.5190 O   0  0  0  0  0  0  0  0  0  0  0  0
   -5.1940    1.3420    0.6320 O   0  0  0  0  0  0  0  0  0  0  0  0
   -3.7920    3.6740    1.0220 O   0  0  0  0  0  0  0  0  0  0  0  0
    4.8600    0.0180   -0.8850 C   0  0  0  0  0  0  0  0  0  0  0  0
    6.3210   -0.8540   -1.2540 S   0  0  0  0  0  0  0  0  0  0  0  0
    6.2770   -1.3330   -2.8740 O   0  0  0  0  0  0  0  0  0  0  0  0
    7.7000    0.0920   -1.0080 O   0  0  0  0  0  0  0  0  0  0  0  0
    6.4380   -2.2450   -0.2990 O   0  0  0  0  0  0  0  0  0  0  0  0
   -1.2090    3.1400    0.0100 H   0  0  0  0  0  0  0  0  0  0  0  0
   -1.2170   -1.7110   -0.0150 H   0  0  0  0  0  0  0  0  0  0  0  0
   -3.2820   -0.5130    0.0310 H   0  0  0  0  0  0  0  0  0  0  0  0
    3.6910    3.1460   -0.6130 H   0  0  0  0  0  0  0  0  0  0  0  0
    3.6840   -1.7050   -0.6330 H   0  0  0  0  0  0  0  0  0  0  0  0
    5.7010    1.9490   -1.0940 H   0  0  0  0  0  0  0  0  0  0  0  0
  1  4  2  0  0  0  0
  1  2  1  0  0  0  0
  1  3  1  0  0  0  0
  2  6  2  0  0  0  0
  2  5  1  0  0  0  0
  3  8  2  0  0  0  0
  3  7  1  0  0  0  0
  4  9  1  0  0  0  0
  4 25  1  0  0  0  0
  5 11  2  0  0  0  0
  5 10  1  0  0  0  0
  6 12  1  0  0  0  0
  6 26  1  0  0  0  0
  7 10  2  0  0  0  0
  7 13  1  0  0  0  0
  9 14  1  0  0  0  0
  9 12  2  0  0  0  0
 10 15  1  0  0  0  0
 12 27  1  0  0  0  0
 13 16  2  0  0  0  0
 13 28  1  0  0  0  0
 14 18  2  0  0  0  0
 14 19  1  0  0  0  0
 14 17  2  0  0  0  0
 15 20  2  0  0  0  0
 15 29  1  0  0  0  0
 16 20  1  0  0  0  0
 16 30  1  0  0  0  0
 20 21  1  0  0  0  0
 21 23  2  0  0  0  0
 21 24  1  0  0  0  0
 21 22  2  0  0  0  0
M  END
