decoy-2
 OpenBabel06062114503D

 33 35  0  0  0  0  0  0  0  0999 V2000
   -0.1100   -2.0930   -0.9880 C   0  0  0  0  0  0  0  0  0  0  0  0
   -1.0090   -1.0160   -0.9680 C   0  0  0  0  0  0  0  0  0  0  0  0
    1.2600   -1.9010   -0.8820 C   0  0  0  0  0  0  0  0  0  0  0  0
   -0.5110   -3.3160   -1.0570 N   0  0  0  0  0  0  0  0  0  0  0  0
   -2.2190   -1.0650   -0.2060 C   0  0  0  0  0  0  0  0  0  0  0  0
   -0.7410    0.1170   -1.7780 C   0  0  0  0  0  0  0  0  0  0  0  0
    1.8160   -1.3540    0.2990 C   0  0  0  0  0  0  0  0  0  0  0  0
    2.1220   -2.2420   -1.9510 C   0  0  0  0  0  0  0  0  0  0  0  0
   -1.8180   -3.7980   -1.0710 C   0  0  0  0  0  0  0  0  0  0  0  0
   -2.5690   -2.1490    0.6040 N   0  0  0  0  0  0  0  0  0  0  0  0
   -3.1260    0.0200   -0.3190 C   0  0  0  0  0  0  0  0  0  0  0  0
   -1.6430    1.1930   -1.8450 C   0  0  0  0  0  0  0  0  0  0  0  0
    3.2050   -1.1520    0.4060 C   0  0  0  0  0  0  0  0  0  0  0  0
    3.5100   -2.0400   -1.8410 C   0  0  0  0  0  0  0  0  0  0  0  0
   -2.4680   -3.4270    0.1800 C   0  0  0  0  0  0  0  0  0  0  0  0
   -3.0330   -1.8930    1.9570 C   0  0  0  0  0  0  0  0  0  0  0  0
   -2.8410    1.1390   -1.1170 C   0  0  0  0  0  0  0  0  0  0  0  0
   -1.3010    2.5340   -2.8200 Cl  0  0  0  0  0  0  0  0  0  0  0  0
    4.0520   -1.4940   -0.6630 C   0  0  0  0  0  0  0  0  0  0  0  0
   -2.8530   -4.3580    0.8800 O   0  0  0  0  0  0  0  0  0  0  0  0
    0.1130    0.1590   -2.3420 H   0  0  0  0  0  0  0  0  0  0  0  0
    1.2150   -1.1000    1.0880 H   0  0  0  0  0  0  0  0  0  0  0  0
    1.7450   -2.6360   -2.8180 H   0  0  0  0  0  0  0  0  0  0  0  0
   -2.3710   -3.3860   -1.9200 H   0  0  0  0  0  0  0  0  0  0  0  0
   -1.7720   -4.8830   -1.2000 H   0  0  0  0  0  0  0  0  0  0  0  0
   -4.0210   -0.0020    0.1760 H   0  0  0  0  0  0  0  0  0  0  0  0
    3.5990   -0.7560    1.2630 H   0  0  0  0  0  0  0  0  0  0  0  0
    4.1260   -2.2880   -2.6180 H   0  0  0  0  0  0  0  0  0  0  0  0
   -2.9700   -0.8410    2.2460 H   0  0  0  0  0  0  0  0  0  0  0  0
   -2.4230   -2.4480    2.6740 H   0  0  0  0  0  0  0  0  0  0  0  0
   -4.0730   -2.2090    2.0610 H   0  0  0  0  0  0  0  0  0  0  0  0
   -3.5150    1.9070   -1.1720 H   0  0  0  0  0  0  0  0  0  0  0  0
    5.0600   -1.3470   -0.5840 H   0  0  0  0  0  0  0  0  0  0  0  0
  1  2  1  0  0  0  0
  1  3  1  0  0  0  0
  1  4  2  0  0  0  0
  2  5  2  0  0  0  0
  2  6  1  0  0  0  0
  3  7  2  0  0  0  0
  3  8  1  0  0  0  0
  4  9  1  0  0  0  0
  5 10  1  0  0  0  0
  5 11  1  0  0  0  0
  6 12  2  0  0  0  0
  6 21  1  0  0  0  0
  7 13  1  0  0  0  0
  7 22  1  0  0  0  0
  8 14  2  0  0  0  0
  8 23  1  0  0  0  0
  9 15  1  0  0  0  0
  9 24  1  0  0  0  0
  9 25  1  0  0  0  0
 10 16  1  0  0  0  0
 10 15  1  0  0  0  0
 11 26  1  0  0  0  0
 11 17  2  0  0  0  0
 12 17  1  0  0  0  0
 12 18  1  0  0  0  0
 13 27  1  0  0  0  0
 13 19  2  0  0  0  0
 14 19  1  0  0  0  0
 14 28  1  0  0  0  0
 15 20  2  0  0  0  0
 16 31  1  0  0  0  0
 16 29  1  0  0  0  0
 16 30  1  0  0  0  0
 17 32  1  0  0  0  0
 19 33  1  0  0  0  0
M  END
