decoy-477
 OpenBabel06062114513D

 37 39  0  0  0  0  0  0  0  0999 V2000
   -0.0470    1.5210   -0.0650 C   0  0  0  0  0  0  0  0  0  0  0  0
   -0.0180    0.1430   -0.1620 C   0  0  0  0  0  0  0  0  0  0  0  0
    0.4590    2.1790   -1.1380 O   0  0  0  0  0  0  0  0  0  0  0  0
   -0.5410    2.1640    1.0200 C   0  0  0  0  0  0  0  0  0  0  0  0
    0.9820   -0.6020    0.5030 C   0  0  0  0  0  0  0  0  0  0  0  0
   -0.9760   -0.5340   -0.9470 C   0  0  0  0  0  0  0  0  0  0  0  0
    0.4870    3.5590   -1.1180 C   0  0  0  0  0  0  0  0  0  0  0  0
   -0.5220    3.5330    1.0600 C   0  0  0  0  0  0  0  0  0  0  0  0
   -1.0480    1.5000    2.0640 O   0  0  0  0  0  0  0  0  0  0  0  0
    1.0240   -2.0070    0.3890 C   0  0  0  0  0  0  0  0  0  0  0  0
   -0.9470   -1.9370   -1.0480 C   0  0  0  0  0  0  0  0  0  0  0  0
   -0.0100    4.2820   -0.0030 C   0  0  0  0  0  0  0  0  0  0  0  0
    1.0200    4.2410   -2.2290 C   0  0  0  0  0  0  0  0  0  0  0  0
   -0.9650    4.1040    2.0500 O   0  0  0  0  0  0  0  0  0  0  0  0
    0.0360   -2.6800   -0.3650 C   0  0  0  0  0  0  0  0  0  0  0  0
    1.9870   -2.7130    1.0580 O   0  0  0  0  0  0  0  0  0  0  0  0
    0.0400    5.6970   -0.0280 C   0  0  0  0  0  0  0  0  0  0  0  0
    1.0640    5.6480   -2.2430 C   0  0  0  0  0  0  0  0  0  0  0  0
    0.0640   -4.0430   -0.4880 O   0  0  0  0  0  0  0  0  0  0  0  0
    3.1840   -2.9100    0.2870 C   0  0  0  0  0  0  0  0  0  0  0  0
    0.5730    6.3730   -1.1410 C   0  0  0  0  0  0  0  0  0  0  0  0
    1.5740    6.3180   -3.3070 O   0  0  0  0  0  0  0  0  0  0  0  0
   -0.7120   -4.7190    0.5160 C   0  0  0  0  0  0  0  0  0  0  0  0
    1.6890   -0.1260    1.0710 H   0  0  0  0  0  0  0  0  0  0  0  0
   -1.7030   -0.0140   -1.4470 H   0  0  0  0  0  0  0  0  0  0  0  0
   -1.1720    0.5720    1.7790 H   0  0  0  0  0  0  0  0  0  0  0  0
   -1.6470   -2.4180   -1.6170 H   0  0  0  0  0  0  0  0  0  0  0  0
    1.3750    3.7110   -3.0280 H   0  0  0  0  0  0  0  0  0  0  0  0
   -0.3110    6.2460    0.7600 H   0  0  0  0  0  0  0  0  0  0  0  0
    3.8890   -3.4800    0.8930 H   0  0  0  0  0  0  0  0  0  0  0  0
    2.9820   -3.4780   -0.6250 H   0  0  0  0  0  0  0  0  0  0  0  0
    3.6510   -1.9570    0.0270 H   0  0  0  0  0  0  0  0  0  0  0  0
    0.6030    7.3950   -1.1470 H   0  0  0  0  0  0  0  0  0  0  0  0
    1.8520    5.6300   -3.9470 H   0  0  0  0  0  0  0  0  0  0  0  0
   -0.6310   -5.7920    0.3430 H   0  0  0  0  0  0  0  0  0  0  0  0
   -0.3370   -4.5060    1.5200 H   0  0  0  0  0  0  0  0  0  0  0  0
   -1.7680   -4.4430    0.4550 H   0  0  0  0  0  0  0  0  0  0  0  0
  1  4  2  0  0  0  0
  1  2  1  0  0  0  0
  1  3  1  0  0  0  0
  2  5  2  0  0  0  0
  2  6  1  0  0  0  0
  3  7  1  0  0  0  0
  4  8  1  0  0  0  0
  4  9  1  0  0  0  0
  5 24  1  0  0  0  0
  5 10  1  0  0  0  0
  6 11  2  0  0  0  0
  6 25  1  0  0  0  0
  7 12  2  0  0  0  0
  7 13  1  0  0  0  0
  8 14  2  0  0  0  0
  8 12  1  0  0  0  0
  9 26  1  0  0  0  0
 10 16  1  0  0  0  0
 10 15  2  0  0  0  0
 11 15  1  0  0  0  0
 11 27  1  0  0  0  0
 12 17  1  0  0  0  0
 13 18  2  0  0  0  0
 13 28  1  0  0  0  0
 15 19  1  0  0  0  0
 16 20  1  0  0  0  0
 17 29  1  0  0  0  0
 17 21  2  0  0  0  0
 18 21  1  0  0  0  0
 18 22  1  0  0  0  0
 19 23  1  0  0  0  0
 20 30  1  0  0  0  0
 20 31  1  0  0  0  0
 20 32  1  0  0  0  0
 21 33  1  0  0  0  0
 22 34  1  0  0  0  0
 23 36  1  0  0  0  0
 23 35  1  0  0  0  0
 23 37  1  0  0  0  0
M  END
