decoy-501
 OpenBabel06062114513D

 62 61  0  0  0  0  0  0  0  0999 V2000
    0.1460    1.5600    0.0090 C   0  0  0  0  0  0  0  0  0  0  0  0
    0.1050    0.0090    0.0000 C   0  0  0  0  0  0  0  0  0  0  0  0
    1.5950    2.1210   -0.0040 C   0  0  0  0  0  0  0  0  0  0  0  0
   -1.3420   -0.5500    0.0120 C   0  0  0  0  0  0  0  0  0  0  0  0
    1.6360    3.6800    0.0060 C   0  0  0  0  0  0  0  0  0  0  0  0
   -1.3830   -2.1020    0.0030 C   0  0  0  0  0  0  0  0  0  0  0  0
    2.9870    4.3800   -0.0050 *   0  0  0  0  0  0  0  0  0  0  0  0
   -2.8310   -2.6610    0.0150 C   0  0  0  0  0  0  0  0  0  0  0  0
    3.8000    4.0210    1.2150 C   0  0  0  0  0  0  0  0  0  0  0  0
    3.7720    4.0370   -1.2470 C   0  0  0  0  0  0  0  0  0  0  0  0
    2.7490    5.8740    0.0080 C   0  0  0  0  0  0  0  0  0  0  0  0
   -2.8710   -4.2120    0.0060 C   0  0  0  0  0  0  0  0  0  0  0  0
   -4.3190   -4.7710    0.0180 C   0  0  0  0  0  0  0  0  0  0  0  0
   -4.3600   -6.3220    0.0090 C   0  0  0  0  0  0  0  0  0  0  0  0
   -5.8070   -6.8810    0.0210 C   0  0  0  0  0  0  0  0  0  0  0  0
   -5.8480   -8.4320    0.0110 C   0  0  0  0  0  0  0  0  0  0  0  0
   -7.2960   -8.9910    0.0230 C   0  0  0  0  0  0  0  0  0  0  0  0
   -7.3370  -10.5420    0.0140 C   0  0  0  0  0  0  0  0  0  0  0  0
   -8.7840  -11.1000    0.0260 C   0  0  0  0  0  0  0  0  0  0  0  0
   -8.8280  -12.6440    0.0170 C   0  0  0  0  0  0  0  0  0  0  0  0
   -0.3890    1.9350   -0.8680 H   0  0  0  0  0  0  0  0  0  0  0  0
   -0.3690    1.9230    0.9030 H   0  0  0  0  0  0  0  0  0  0  0  0
    0.6200   -0.3550   -0.8940 H   0  0  0  0  0  0  0  0  0  0  0  0
    0.6390   -0.3670    0.8770 H   0  0  0  0  0  0  0  0  0  0  0  0
    2.1190    1.7360    0.8730 H   0  0  0  0  0  0  0  0  0  0  0  0
    2.0990    1.7480   -0.8970 H   0  0  0  0  0  0  0  0  0  0  0  0
   -1.8570   -0.1860    0.9060 H   0  0  0  0  0  0  0  0  0  0  0  0
   -1.8760   -0.1750   -0.8660 H   0  0  0  0  0  0  0  0  0  0  0  0
    1.0570    4.0150   -0.8620 H   0  0  0  0  0  0  0  0  0  0  0  0
    1.0770    4.0040    0.8910 H   0  0  0  0  0  0  0  0  0  0  0  0
   -0.8690   -2.4660   -0.8910 H   0  0  0  0  0  0  0  0  0  0  0  0
   -0.8490   -2.4770    0.8800 H   0  0  0  0  0  0  0  0  0  0  0  0
   -3.3450   -2.2960    0.9090 H   0  0  0  0  0  0  0  0  0  0  0  0
   -3.3640   -2.2850   -0.8630 H   0  0  0  0  0  0  0  0  0  0  0  0
    4.7290    4.5970    1.2600 H   0  0  0  0  0  0  0  0  0  0  0  0
    3.2440    4.2180    2.1350 H   0  0  0  0  0  0  0  0  0  0  0  0
    4.0820    2.9660    1.2170 H   0  0  0  0  0  0  0  0  0  0  0  0
    3.1950    4.2460   -2.1520 H   0  0  0  0  0  0  0  0  0  0  0  0
    4.7000    4.6130   -1.3060 H   0  0  0  0  0  0  0  0  0  0  0  0
    4.0540    2.9820   -1.2700 H   0  0  0  0  0  0  0  0  0  0  0  0
    2.1940    6.1830    0.8980 H   0  0  0  0  0  0  0  0  0  0  0  0
    3.6890    6.4340    0.0010 H   0  0  0  0  0  0  0  0  0  0  0  0
    2.1740    6.1940   -0.8660 H   0  0  0  0  0  0  0  0  0  0  0  0
   -2.3570   -4.5760   -0.8880 H   0  0  0  0  0  0  0  0  0  0  0  0
   -2.3380   -4.5870    0.8840 H   0  0  0  0  0  0  0  0  0  0  0  0
   -4.8340   -4.4070    0.9110 H   0  0  0  0  0  0  0  0  0  0  0  0
   -4.8530   -4.3960   -0.8600 H   0  0  0  0  0  0  0  0  0  0  0  0
   -3.8450   -6.6860   -0.8850 H   0  0  0  0  0  0  0  0  0  0  0  0
   -3.8260   -6.6970    0.8870 H   0  0  0  0  0  0  0  0  0  0  0  0
   -6.3220   -6.5170    0.9140 H   0  0  0  0  0  0  0  0  0  0  0  0
   -6.3410   -6.5060   -0.8570 H   0  0  0  0  0  0  0  0  0  0  0  0
   -5.3340   -8.7960   -0.8820 H   0  0  0  0  0  0  0  0  0  0  0  0
   -5.3150   -8.8070    0.8890 H   0  0  0  0  0  0  0  0  0  0  0  0
   -7.8110   -8.6270    0.9170 H   0  0  0  0  0  0  0  0  0  0  0  0
   -7.8290   -8.6160   -0.8550 H   0  0  0  0  0  0  0  0  0  0  0  0
   -6.8220  -10.9070   -0.8790 H   0  0  0  0  0  0  0  0  0  0  0  0
   -6.8040  -10.9180    0.8920 H   0  0  0  0  0  0  0  0  0  0  0  0
   -9.3040  -10.7420    0.9190 H   0  0  0  0  0  0  0  0  0  0  0  0
   -9.3220  -10.7320   -0.8520 H   0  0  0  0  0  0  0  0  0  0  0  0
   -9.8660  -12.9840    0.0260 H   0  0  0  0  0  0  0  0  0  0  0  0
   -8.3420  -13.0340   -0.8800 H   0  0  0  0  0  0  0  0  0  0  0  0
   -8.3230  -13.0450    0.8980 H   0  0  0  0  0  0  0  0  0  0  0  0
  1 22  1  0  0  0  0
  1  2  1  0  0  0  0
  1  3  1  0  0  0  0
  1 21  1  0  0  0  0
  2  4  1  0  0  0  0
  2 24  1  0  0  0  0
  2 23  1  0  0  0  0
  3  5  1  0  0  0  0
  3 25  1  0  0  0  0
  3 26  1  0  0  0  0
  4 27  1  0  0  0  0
  4  6  1  0  0  0  0
  4 28  1  0  0  0  0
  5 30  1  0  0  0  0
  5  7  1  0  0  0  0
  5 29  1  0  0  0  0
  6  8  1  0  0  0  0
  6 32  1  0  0  0  0
  6 31  1  0  0  0  0
  7 11  1  0  0  0  0
  7  9  1  0  0  0  0
  7 10  1  0  0  0  0
  8 33  1  0  0  0  0
  8 12  1  0  0  0  0
  8 34  1  0  0  0  0
  9 37  1  0  0  0  0
  9 35  1  0  0  0  0
  9 36  1  0  0  0  0
 10 38  1  0  0  0  0
 10 39  1  0  0  0  0
 10 40  1  0  0  0  0
 11 41  1  0  0  0  0
 11 42  1  0  0  0  0
 11 43  1  0  0  0  0
 12 13  1  0  0  0  0
 12 45  1  0  0  0  0
 12 44  1  0  0  0  0
 13 46  1  0  0  0  0
 13 14  1  0  0  0  0
 13 47  1  0  0  0  0
 14 15  1  0  0  0  0
 14 49  1  0  0  0  0
 14 48  1  0  0  0  0
 15 50  1  0  0  0  0
 15 16  1  0  0  0  0
 15 51  1  0  0  0  0
 16 17  1  0  0  0  0
 16 53  1  0  0  0  0
 16 52  1  0  0  0  0
 17 54  1  0  0  0  0
 17 18  1  0  0  0  0
 17 55  1  0  0  0  0
 18 19  1  0  0  0  0
 18 57  1  0  0  0  0
 18 56  1  0  0  0  0
 19 58  1  0  0  0  0
 19 20  1  0  0  0  0
 19 59  1  0  0  0  0
 20 60  1  0  0  0  0
 20 62  1  0  0  0  0
 20 61  1  0  0  0  0
M  END
