decoy-593
 OpenBabel06062114513D

 41 41  0  0  0  0  0  0  0  0999 V2000
   -0.1110    1.4970   -0.0380 C   0  0  0  0  0  0  0  0  0  0  0  0
   -0.2140    0.0370   -0.2720 C   0  0  0  0  0  0  0  0  0  0  0  0
    1.1220    2.1800   -0.1660 C   0  0  0  0  0  0  0  0  0  0  0  0
   -1.2630    2.2370    0.3190 C   0  0  0  0  0  0  0  0  0  0  0  0
   -0.6220   -0.6120    0.9370 O   0  0  0  0  0  0  0  0  0  0  0  0
    1.2010    3.5670    0.0600 C   0  0  0  0  0  0  0  0  0  0  0  0
   -1.1850    3.6240    0.5440 C   0  0  0  0  0  0  0  0  0  0  0  0
   -0.8430   -1.9420    1.0980 C   0  0  0  0  0  0  0  0  0  0  0  0
    0.0470    4.2890    0.4150 C   0  0  0  0  0  0  0  0  0  0  0  0
   -1.2250   -2.3660    2.3230 N   0  0  0  0  0  0  0  0  0  0  0  0
   -0.6830   -2.8030    0.0650 O   0  0  0  0  0  0  0  0  0  0  0  0
   -1.4850   -3.7280    2.6890 C   0  0  0  0  0  0  0  0  0  0  0  0
   -1.5820   -3.8500    4.2390 C   0  0  0  0  0  0  0  0  0  0  0  0
   -2.7190   -4.2540    2.0550 C   0  0  0  0  0  0  0  0  0  0  0  0
   -0.2680   -3.4750    4.9800 C   0  0  0  0  0  0  0  0  0  0  0  0
   -3.0110   -5.5720    2.1340 O   0  0  0  0  0  0  0  0  0  0  0  0
   -3.5880   -3.4550    1.3950 O   0  0  0  0  0  0  0  0  0  0  0  0
   -0.3810   -3.6430    6.5150 C   0  0  0  0  0  0  0  0  0  0  0  0
    0.8460   -3.2850    7.1510 N   0  0  0  0  0  0  0  0  0  0  0  0
    1.0710   -3.3220    8.4830 C   0  0  0  0  0  0  0  0  0  0  0  0
    0.1480   -3.7070    9.3820 *   0  0  0  0  0  0  0  0  0  0  0  0
    2.2790   -2.9560    8.9360 N   0  0  0  0  0  0  0  0  0  0  0  0
   -0.9500   -0.1490   -1.0590 H   0  0  0  0  0  0  0  0  0  0  0  0
    0.7420   -0.3840   -0.5940 H   0  0  0  0  0  0  0  0  0  0  0  0
    1.9730    1.6720   -0.4230 H   0  0  0  0  0  0  0  0  0  0  0  0
   -2.1680    1.7680    0.4160 H   0  0  0  0  0  0  0  0  0  0  0  0
    2.0960    4.0500   -0.0350 H   0  0  0  0  0  0  0  0  0  0  0  0
   -2.0240    4.1480    0.8020 H   0  0  0  0  0  0  0  0  0  0  0  0
    0.1050    5.2960    0.5790 H   0  0  0  0  0  0  0  0  0  0  0  0
   -1.2960   -1.6940    3.0190 H   0  0  0  0  0  0  0  0  0  0  0  0
   -0.6460   -4.3450    2.3510 H   0  0  0  0  0  0  0  0  0  0  0  0
   -2.3910   -3.2080    4.6000 H   0  0  0  0  0  0  0  0  0  0  0  0
   -1.8320   -4.8830    4.5020 H   0  0  0  0  0  0  0  0  0  0  0  0
    0.5430   -4.1110    4.6130 H   0  0  0  0  0  0  0  0  0  0  0  0
   -0.0110   -2.4360    4.7600 H   0  0  0  0  0  0  0  0  0  0  0  0
   -1.1820   -3.0020    6.8920 H   0  0  0  0  0  0  0  0  0  0  0  0
   -0.6190   -4.6840    6.7510 H   0  0  0  0  0  0  0  0  0  0  0  0
    1.5770   -2.9930    6.5830 H   0  0  0  0  0  0  0  0  0  0  0  0
    0.3650   -3.7140   10.3280 H   0  0  0  0  0  0  0  0  0  0  0  0
   -0.7360   -3.9780    9.0890 H   0  0  0  0  0  0  0  0  0  0  0  0
    2.9690   -2.6720    8.3160 H   0  0  0  0  0  0  0  0  0  0  0  0
  1  4  2  0  0  0  0
  1  2  1  0  0  0  0
  1  3  1  0  0  0  0
  2  5  1  0  0  0  0
  2 23  1  0  0  0  0
  2 24  1  0  0  0  0
  3  6  2  0  0  0  0
  3 25  1  0  0  0  0
  4 26  1  0  0  0  0
  4  7  1  0  0  0  0
  5  8  1  0  0  0  0
  6  9  1  0  0  0  0
  6 27  1  0  0  0  0
  7 28  1  0  0  0  0
  7  9  2  0  0  0  0
  8 10  1  0  0  0  0
  8 11  2  0  0  0  0
  9 29  1  0  0  0  0
 10 12  1  0  0  0  0
 10 30  1  0  0  0  0
 12 31  1  0  0  0  0
 12 13  1  0  0  0  0
 12 14  1  0  0  0  0
 13 33  1  0  0  0  0
 13 32  1  0  0  0  0
 13 15  1  0  0  0  0
 14 16  1  0  0  0  0
 14 17  2  0  0  0  0
 15 18  1  0  0  0  0
 15 34  1  0  0  0  0
 15 35  1  0  0  0  0
 18 37  1  0  0  0  0
 18 36  1  0  0  0  0
 18 19  1  0  0  0  0
 19 20  1  0  0  0  0
 19 38  1  0  0  0  0
 20 22  1  0  0  0  0
 20 21  2  0  0  0  0
 21 39  1  0  0  0  0
 21 40  1  0  0  0  0
 22 41  1  0  0  0  0
M  END
