decoy-260
 OpenBabel06062114513D

 57 58  0  0  0  0  0  0  0  0999 V2000
   -0.5740    1.3070   -1.0390 C   0  0  0  0  0  0  0  0  0  0  0  0
   -0.6440   -0.0630   -0.8700 C   0  0  0  0  0  0  0  0  0  0  0  0
    0.4140    2.0660   -0.3710 C   0  0  0  0  0  0  0  0  0  0  0  0
   -1.4760    1.9600   -1.9080 C   0  0  0  0  0  0  0  0  0  0  0  0
   -1.1640   -0.6750    0.2110 C   0  0  0  0  0  0  0  0  0  0  0  0
    0.4840    3.4590   -0.5560 C   0  0  0  0  0  0  0  0  0  0  0  0
   -1.4040    3.3530   -2.0910 C   0  0  0  0  0  0  0  0  0  0  0  0
   -1.1970   -2.0540    0.2940 C   0  0  0  0  0  0  0  0  0  0  0  0
   -1.8160    0.1580    1.5030 Cl  0  0  0  0  0  0  0  0  0  0  0  0
   -0.4340    4.1110   -1.4030 C   0  0  0  0  0  0  0  0  0  0  0  0
   -2.3060   -2.7740   -0.2010 C   0  0  0  0  0  0  0  0  0  0  0  0
   -0.1230   -2.7600    0.8790 C   0  0  0  0  0  0  0  0  0  0  0  0
   -0.3470    5.4610   -1.6040 O   0  0  0  0  0  0  0  0  0  0  0  0
   -2.3370   -4.1780   -0.1150 C   0  0  0  0  0  0  0  0  0  0  0  0
   -0.1580   -4.1640    0.9640 C   0  0  0  0  0  0  0  0  0  0  0  0
   -1.1410    6.2290   -0.6790 C   0  0  0  0  0  0  0  0  0  0  0  0
   -1.2630   -4.8930    0.4650 C   0  0  0  0  0  0  0  0  0  0  0  0
   -0.9710    7.7260   -0.9920 C   0  0  0  0  0  0  0  0  0  0  0  0
   -1.3080   -6.3780    0.5540 C   0  0  0  0  0  0  0  0  0  0  0  0
   -1.1640   -7.0630   -0.8330 C   0  0  0  0  0  0  0  0  0  0  0  0
   -1.1870   -8.6120   -0.7380 C   0  0  0  0  0  0  0  0  0  0  0  0
   -1.0450   -9.2970   -2.1230 C   0  0  0  0  0  0  0  0  0  0  0  0
   -1.0660  -10.8460   -2.0280 C   0  0  0  0  0  0  0  0  0  0  0  0
   -0.9250  -11.5310   -3.4130 C   0  0  0  0  0  0  0  0  0  0  0  0
   -0.9460  -13.0790   -3.3170 C   0  0  0  0  0  0  0  0  0  0  0  0
   -0.8050  -13.7640   -4.6940 C   0  0  0  0  0  0  0  0  0  0  0  0
   -0.2960   -0.6170   -1.6200 H   0  0  0  0  0  0  0  0  0  0  0  0
    1.0880    1.6110    0.2510 H   0  0  0  0  0  0  0  0  0  0  0  0
   -2.1920    1.4280   -2.4120 H   0  0  0  0  0  0  0  0  0  0  0  0
    1.2040    3.9990   -0.0700 H   0  0  0  0  0  0  0  0  0  0  0  0
   -2.0600    3.8170   -2.7240 H   0  0  0  0  0  0  0  0  0  0  0  0
   -3.0970   -2.2830   -0.6260 H   0  0  0  0  0  0  0  0  0  0  0  0
    0.6910   -2.2580    1.2460 H   0  0  0  0  0  0  0  0  0  0  0  0
   -3.1540   -4.6770   -0.4750 H   0  0  0  0  0  0  0  0  0  0  0  0
    0.6340   -4.6510    1.3900 H   0  0  0  0  0  0  0  0  0  0  0  0
   -2.2010    5.9710   -0.7710 H   0  0  0  0  0  0  0  0  0  0  0  0
   -0.8190    6.0480    0.3510 H   0  0  0  0  0  0  0  0  0  0  0  0
   -1.5670    8.3220   -0.2990 H   0  0  0  0  0  0  0  0  0  0  0  0
    0.0780    8.0140   -0.8910 H   0  0  0  0  0  0  0  0  0  0  0  0
   -1.3000    7.9370   -2.0110 H   0  0  0  0  0  0  0  0  0  0  0  0
   -0.5090   -6.7450    1.2040 H   0  0  0  0  0  0  0  0  0  0  0  0
   -2.2550   -6.6740    1.0130 H   0  0  0  0  0  0  0  0  0  0  0  0
   -1.9800   -6.7390   -1.4850 H   0  0  0  0  0  0  0  0  0  0  0  0
   -0.2200   -6.7480   -1.2870 H   0  0  0  0  0  0  0  0  0  0  0  0
   -0.3670   -8.9410   -0.0930 H   0  0  0  0  0  0  0  0  0  0  0  0
   -2.1290   -8.9270   -0.2800 H   0  0  0  0  0  0  0  0  0  0  0  0
   -1.8650   -8.9690   -2.7680 H   0  0  0  0  0  0  0  0  0  0  0  0
   -0.1030   -8.9820   -2.5810 H   0  0  0  0  0  0  0  0  0  0  0  0
   -0.2460  -11.1740   -1.3830 H   0  0  0  0  0  0  0  0  0  0  0  0
   -2.0080  -11.1610   -1.5700 H   0  0  0  0  0  0  0  0  0  0  0  0
   -1.7450  -11.2030   -4.0580 H   0  0  0  0  0  0  0  0  0  0  0  0
    0.0170  -11.2160   -3.8720 H   0  0  0  0  0  0  0  0  0  0  0  0
   -0.1260  -13.4140   -2.6760 H   0  0  0  0  0  0  0  0  0  0  0  0
   -1.8870  -13.4010   -2.8630 H   0  0  0  0  0  0  0  0  0  0  0  0
   -0.8270  -14.8490   -4.5710 H   0  0  0  0  0  0  0  0  0  0  0  0
   -1.6280  -13.4720   -5.3510 H   0  0  0  0  0  0  0  0  0  0  0  0
    0.1400  -13.4850   -5.1630 H   0  0  0  0  0  0  0  0  0  0  0  0
  1  2  1  0  0  0  0
  1  3  2  0  0  0  0
  1  4  1  0  0  0  0
  2  5  2  0  0  0  0
  2 27  1  0  0  0  0
  3 28  1  0  0  0  0
  3  6  1  0  0  0  0
  4  7  2  0  0  0  0
  4 29  1  0  0  0  0
  5  8  1  0  0  0  0
  5  9  1  0  0  0  0
  6 30  1  0  0  0  0
  6 10  2  0  0  0  0
  7 10  1  0  0  0  0
  7 31  1  0  0  0  0
  8 12  2  0  0  0  0
  8 11  1  0  0  0  0
 10 13  1  0  0  0  0
 11 14  2  0  0  0  0
 11 32  1  0  0  0  0
 12 15  1  0  0  0  0
 12 33  1  0  0  0  0
 13 16  1  0  0  0  0
 14 17  1  0  0  0  0
 14 34  1  0  0  0  0
 15 35  1  0  0  0  0
 15 17  2  0  0  0  0
 16 37  1  0  0  0  0
 16 18  1  0  0  0  0
 16 36  1  0  0  0  0
 17 19  1  0  0  0  0
 18 39  1  0  0  0  0
 18 38  1  0  0  0  0
 18 40  1  0  0  0  0
 19 42  1  0  0  0  0
 19 41  1  0  0  0  0
 19 20  1  0  0  0  0
 20 21  1  0  0  0  0
 20 43  1  0  0  0  0
 20 44  1  0  0  0  0
 21 46  1  0  0  0  0
 21 45  1  0  0  0  0
 21 22  1  0  0  0  0
 22 23  1  0  0  0  0
 22 47  1  0  0  0  0
 22 48  1  0  0  0  0
 23 50  1  0  0  0  0
 23 49  1  0  0  0  0
 23 24  1  0  0  0  0
 24 25  1  0  0  0  0
 24 51  1  0  0  0  0
 24 52  1  0  0  0  0
 25 54  1  0  0  0  0
 25 53  1  0  0  0  0
 25 26  1  0  0  0  0
 26 55  1  0  0  0  0
 26 56  1  0  0  0  0
 26 57  1  0  0  0  0
M  END
