decoy-565
 OpenBabel06062114513D

 16 16  0  0  0  0  0  0  0  0999 V2000
    0.0330    1.6690    0.0230 P   0  0  0  0  0  0  0  0  0  0  0  0
    0.0250    0.1740    0.2250 N   0  0  0  0  0  0  0  0  0  0  0  0
    1.3500    2.3130   -0.3040 N   0  0  0  0  0  0  0  0  0  0  0  0
   -1.2930    2.0830   -1.2430 Cl  0  0  0  0  0  0  0  0  0  0  0  0
   -0.5910    2.4920    1.5920 Cl  0  0  0  0  0  0  0  0  0  0  0  0
    1.0170   -0.6860    0.9520 P   0  0  0  0  0  0  0  0  0  0  0  0
    2.3010    2.0320   -1.4410 P   0  0  0  0  0  0  0  0  0  0  0  0
    2.1770   -1.1420    0.1080 N   0  0  0  0  0  0  0  0  0  0  0  0
    1.5110   -0.1220    2.6780 Cl  0  0  0  0  0  0  0  0  0  0  0  0
    0.0730   -2.2790    1.2540 Cl  0  0  0  0  0  0  0  0  0  0  0  0
    2.8180    0.6290   -1.5760 N   0  0  0  0  0  0  0  0  0  0  0  0
    1.5910    2.5430   -3.1030 Cl  0  0  0  0  0  0  0  0  0  0  0  0
    3.7620    3.1920   -1.2160 Cl  0  0  0  0  0  0  0  0  0  0  0  0
    3.2770   -0.3210   -0.4980 P   0  0  0  0  0  0  0  0  0  0  0  0
    4.4950    0.3650    0.7620 Cl  0  0  0  0  0  0  0  0  0  0  0  0
    4.2770   -1.5990   -1.4400 Cl  0  0  0  0  0  0  0  0  0  0  0  0
  1  2  1  0  0  0  0
  1  5  1  0  0  0  0
  1  3  1  0  0  0  0
  1  4  1  0  0  0  0
  2  6  1  0  0  0  0
  3  7  1  0  0  0  0
  6 10  1  0  0  0  0
  6  9  1  0  0  0  0
  6  8  1  0  0  0  0
  7 13  1  0  0  0  0
  7 11  1  0  0  0  0
  7 12  1  0  0  0  0
  8 14  1  0  0  0  0
 11 14  1  0  0  0  0
 14 15  1  0  0  0  0
 14 16  1  0  0  0  0
M  END
