decoy-794
 OpenBabel06062114513D

 27 28  0  0  0  0  0  0  0  0999 V2000
    0.4820    1.6990   -0.5450 C   0  0  0  0  0  0  0  0  0  0  0  0
    1.3410    0.7590    0.2350 C   0  0  0  0  0  0  0  0  0  0  0  0
   -0.8700    1.8200   -0.0540 C   0  0  0  0  0  0  0  0  0  0  0  0
    0.2050    1.2240   -1.8480 N   0  0  0  0  0  0  0  0  0  0  0  0
    2.5530    1.2090    0.8120 C   0  0  0  0  0  0  0  0  0  0  0  0
    0.9730   -0.5980    0.4180 C   0  0  0  0  0  0  0  0  0  0  0  0
   -1.7500    1.4370   -0.9650 N   0  0  0  0  0  0  0  0  0  0  0  0
   -1.1330    2.2370    1.0670 O   0  0  0  0  0  0  0  0  0  0  0  0
   -1.0820    1.0840   -2.0470 C   0  0  0  0  0  0  0  0  0  0  0  0
    3.3700    0.3330    1.5500 C   0  0  0  0  0  0  0  0  0  0  0  0
    1.7900   -1.4750    1.1550 C   0  0  0  0  0  0  0  0  0  0  0  0
   -3.1840    1.4200   -0.8200 C   0  0  0  0  0  0  0  0  0  0  0  0
   -1.5490    0.6940   -3.1080 O   0  0  0  0  0  0  0  0  0  0  0  0
    2.9890   -1.0090    1.7220 C   0  0  0  0  0  0  0  0  0  0  0  0
   -3.7460   -0.0160   -0.7220 C   0  0  0  0  0  0  0  0  0  0  0  0
    0.9290    2.6950   -0.6220 H   0  0  0  0  0  0  0  0  0  0  0  0
    0.8840    1.0350   -2.5150 H   0  0  0  0  0  0  0  0  0  0  0  0
    2.8500    2.1820    0.7020 H   0  0  0  0  0  0  0  0  0  0  0  0
    0.1040   -0.9570    0.0150 H   0  0  0  0  0  0  0  0  0  0  0  0
    4.2430    0.6730    1.9620 H   0  0  0  0  0  0  0  0  0  0  0  0
    1.5120   -2.4510    1.2800 H   0  0  0  0  0  0  0  0  0  0  0  0
   -3.4930    1.9620    0.0780 H   0  0  0  0  0  0  0  0  0  0  0  0
   -3.6420    1.9300   -1.6720 H   0  0  0  0  0  0  0  0  0  0  0  0
    3.5830   -1.6450    2.2580 H   0  0  0  0  0  0  0  0  0  0  0  0
   -3.5340   -0.5760   -1.6340 H   0  0  0  0  0  0  0  0  0  0  0  0
   -4.8270    0.0190   -0.5790 H   0  0  0  0  0  0  0  0  0  0  0  0
   -3.2970   -0.5370    0.1260 H   0  0  0  0  0  0  0  0  0  0  0  0
  1 16  1  0  0  0  0
  1  3  1  0  0  0  0
  1  2  1  0  0  0  0
  1  4  1  0  0  0  0
  2  6  2  0  0  0  0
  2  5  1  0  0  0  0
  3  8  2  0  0  0  0
  3  7  1  0  0  0  0
  4  9  1  0  0  0  0
  4 17  1  0  0  0  0
  5 10  2  0  0  0  0
  5 18  1  0  0  0  0
  6 11  1  0  0  0  0
  6 19  1  0  0  0  0
  7 12  1  0  0  0  0
  7  9  1  0  0  0  0
  9 13  2  0  0  0  0
 10 14  1  0  0  0  0
 10 20  1  0  0  0  0
 11 21  1  0  0  0  0
 11 14  2  0  0  0  0
 12 15  1  0  0  0  0
 12 22  1  0  0  0  0
 12 23  1  0  0  0  0
 14 24  1  0  0  0  0
 15 26  1  0  0  0  0
 15 27  1  0  0  0  0
 15 25  1  0  0  0  0
M  END
