decoy-581
 OpenBabel06062114513D

 47 47  0  0  0  0  0  0  0  0999 V2000
   -0.1960    1.5540   -0.4800 C   0  0  0  0  0  0  0  0  0  0  0  0
    0.0330    0.0350   -0.1770 C   0  0  0  0  0  0  0  0  0  0  0  0
    1.2140    2.1580   -0.2660 C   0  0  0  0  0  0  0  0  0  0  0  0
   -0.8560    1.8870   -1.7440 C   0  0  0  0  0  0  0  0  0  0  0  0
    0.9760    0.1000    0.9800 *   0  0  0  0  0  0  0  0  0  0  0  0
   -1.2690   -0.6790    0.3050 C   0  0  0  0  0  0  0  0  0  0  0  0
    0.6170   -0.7530   -1.4010 C   0  0  0  0  0  0  0  0  0  0  0  0
    1.8570    1.3080    0.8740 C   0  0  0  0  0  0  0  0  0  0  0  0
   -2.1400    1.5950   -1.8960 N   0  0  0  0  0  0  0  0  0  0  0  0
   -0.2450    2.4500   -2.6450 O   0  0  0  0  0  0  0  0  0  0  0  0
    1.6150   -1.0750    1.2470 O   0  0  0  0  0  0  0  0  0  0  0  0
    3.3560    0.9910    0.5570 C   0  0  0  0  0  0  0  0  0  0  0  0
    1.7810    2.0600    2.2380 C   0  0  0  0  0  0  0  0  0  0  0  0
   -2.9230    1.8450   -3.0650 C   0  0  0  0  0  0  0  0  0  0  0  0
   -4.3700    1.3480   -2.8740 C   0  0  0  0  0  0  0  0  0  0  0  0
   -4.9870    2.0570   -1.7830 O   0  0  0  0  0  0  0  0  0  0  0  0
   -6.3440    1.6670   -1.5030 C   0  0  0  0  0  0  0  0  0  0  0  0
   -6.8950    2.5040   -0.3230 C   0  0  0  0  0  0  0  0  0  0  0  0
   -6.8540    3.8790   -0.5370 N   0  0  0  0  0  0  0  0  0  0  0  0
   -7.5100    4.4830   -1.3580 C   0  0  0  0  0  0  0  0  0  0  0  0
   -8.3990    5.2610   -2.4830 S   0  0  0  0  0  0  0  0  0  0  0  0
   -0.8240    1.9790    0.3120 H   0  0  0  0  0  0  0  0  0  0  0  0
    1.8010    2.0730   -1.1850 H   0  0  0  0  0  0  0  0  0  0  0  0
    1.1500    3.2210   -0.0170 H   0  0  0  0  0  0  0  0  0  0  0  0
   -1.0430   -1.6900    0.6500 H   0  0  0  0  0  0  0  0  0  0  0  0
   -1.7280   -0.1360    1.1350 H   0  0  0  0  0  0  0  0  0  0  0  0
   -1.9990   -0.7550   -0.5020 H   0  0  0  0  0  0  0  0  0  0  0  0
    0.8280   -1.7890   -1.1300 H   0  0  0  0  0  0  0  0  0  0  0  0
   -0.0940   -0.7630   -2.2290 H   0  0  0  0  0  0  0  0  0  0  0  0
    1.5430   -0.3040   -1.7570 H   0  0  0  0  0  0  0  0  0  0  0  0
   -2.5900    1.1750   -1.1460 H   0  0  0  0  0  0  0  0  0  0  0  0
    2.0740   -0.9250    2.1010 H   0  0  0  0  0  0  0  0  0  0  0  0
    3.8180    0.4350    1.3760 H   0  0  0  0  0  0  0  0  0  0  0  0
    3.4420    0.3910   -0.3500 H   0  0  0  0  0  0  0  0  0  0  0  0
    3.9190    1.9160    0.4120 H   0  0  0  0  0  0  0  0  0  0  0  0
    2.1600    1.4290    3.0450 H   0  0  0  0  0  0  0  0  0  0  0  0
    2.3760    2.9760    2.2100 H   0  0  0  0  0  0  0  0  0  0  0  0
    0.7500    2.3310    2.4750 H   0  0  0  0  0  0  0  0  0  0  0  0
   -2.9370    2.9170   -3.2780 H   0  0  0  0  0  0  0  0  0  0  0  0
   -2.4790    1.3240   -3.9180 H   0  0  0  0  0  0  0  0  0  0  0  0
   -4.9260    1.5250   -3.7990 H   0  0  0  0  0  0  0  0  0  0  0  0
   -4.3560    0.2720   -2.6740 H   0  0  0  0  0  0  0  0  0  0  0  0
   -6.9770    1.8220   -2.3810 H   0  0  0  0  0  0  0  0  0  0  0  0
   -6.3830    0.6090   -1.2280 H   0  0  0  0  0  0  0  0  0  0  0  0
   -7.9190    2.1890   -0.0990 H   0  0  0  0  0  0  0  0  0  0  0  0
   -6.2870    2.2950    0.5600 H   0  0  0  0  0  0  0  0  0  0  0  0
    0.3810    0.2670    1.7950 H   0  0  0  0  0  0  0  0  0  0  0  0
  1  3  1  0  0  0  0
  1  2  1  0  0  0  0
  1 22  1  0  0  0  0
  1  4  1  0  0  0  0
  2  6  1  0  0  0  0
  2  5  1  0  0  0  0
  2  7  1  0  0  0  0
  3 24  1  0  0  0  0
  3  8  1  0  0  0  0
  3 23  1  0  0  0  0
  4  9  1  0  0  0  0
  4 10  2  0  0  0  0
  5 11  1  0  0  0  0
  5 47  1  0  0  0  0
  5  8  1  0  0  0  0
  6 25  1  0  0  0  0
  6 26  1  0  0  0  0
  6 27  1  0  0  0  0
  7 28  1  0  0  0  0
  7 29  1  0  0  0  0
  7 30  1  0  0  0  0
  8 13  1  0  0  0  0
  8 12  1  0  0  0  0
  9 31  1  0  0  0  0
  9 14  1  0  0  0  0
 11 32  1  0  0  0  0
 12 33  1  0  0  0  0
 12 34  1  0  0  0  0
 12 35  1  0  0  0  0
 13 38  1  0  0  0  0
 13 36  1  0  0  0  0
 13 37  1  0  0  0  0
 14 15  1  0  0  0  0
 14 39  1  0  0  0  0
 14 40  1  0  0  0  0
 15 42  1  0  0  0  0
 15 16  1  0  0  0  0
 15 41  1  0  0  0  0
 16 17  1  0  0  0  0
 17 44  1  0  0  0  0
 17 18  1  0  0  0  0
 17 43  1  0  0  0  0
 18 45  1  0  0  0  0
 18 46  1  0  0  0  0
 18 19  1  0  0  0  0
 19 20  2  0  0  0  0
 20 21  2  0  0  0  0
M  END
