decoy-538
 OpenBabel06062114513D

 44 48  0  0  0  0  0  0  0  0999 V2000
   -0.0090    1.5590    0.0630 C   0  0  0  0  0  0  0  0  0  0  0  0
   -0.0870    0.0740    0.0660 C   0  0  0  0  0  0  0  0  0  0  0  0
    1.4680    1.9850    0.0310 C   0  0  0  0  0  0  0  0  0  0  0  0
   -1.0840    1.9830   -0.9510 C   0  0  0  0  0  0  0  0  0  0  0  0
   -0.4710    1.8260    1.4240 N   0  0  0  0  0  0  0  0  0  0  0  0
   -0.5520   -0.3770    1.3030 C   0  0  0  0  0  0  0  0  0  0  0  0
    0.2430   -0.8480   -0.9490 C   0  0  0  0  0  0  0  0  0  0  0  0
    2.0310    3.0150   -0.7890 C   0  0  0  0  0  0  0  0  0  0  0  0
    2.3660    1.3620    0.9540 C   0  0  0  0  0  0  0  0  0  0  0  0
   -0.8340    2.4840   -2.2690 C   0  0  0  0  0  0  0  0  0  0  0  0
   -2.4580    1.7750   -0.6120 C   0  0  0  0  0  0  0  0  0  0  0  0
   -0.7620    0.7110    2.0920 C   0  0  0  0  0  0  0  0  0  0  0  0
   -0.6100    3.1590    1.9580 C   0  0  0  0  0  0  0  0  0  0  0  0
   -0.7110   -1.7520    1.5620 C   0  0  0  0  0  0  0  0  0  0  0  0
    0.0860   -2.2270   -0.7020 C   0  0  0  0  0  0  0  0  0  0  0  0
    1.2340    3.7580   -1.7910 C   0  0  0  0  0  0  0  0  0  0  0  0
    3.4090    3.3440   -0.6900 C   0  0  0  0  0  0  0  0  0  0  0  0
    3.7260    1.6960    1.0460 C   0  0  0  0  0  0  0  0  0  0  0  0
    0.5330    2.7740   -2.7560 C   0  0  0  0  0  0  0  0  0  0  0  0
   -1.9100    2.7740   -3.1470 C   0  0  0  0  0  0  0  0  0  0  0  0
   -3.5150    2.0660   -1.4870 C   0  0  0  0  0  0  0  0  0  0  0  0
   -1.1720    0.6380    3.2420 O   0  0  0  0  0  0  0  0  0  0  0  0
   -0.3900   -2.6770    0.5480 C   0  0  0  0  0  0  0  0  0  0  0  0
    4.2510    2.6900    0.2170 C   0  0  0  0  0  0  0  0  0  0  0  0
   -3.2400    2.5690   -2.7610 C   0  0  0  0  0  0  0  0  0  0  0  0
    0.5910   -0.5230   -1.8530 H   0  0  0  0  0  0  0  0  0  0  0  0
    2.0370    0.6400    1.5960 H   0  0  0  0  0  0  0  0  0  0  0  0
   -2.7210    1.3890    0.2950 H   0  0  0  0  0  0  0  0  0  0  0  0
   -1.0080    3.1660    2.9750 H   0  0  0  0  0  0  0  0  0  0  0  0
    0.3610    3.6560    1.9780 H   0  0  0  0  0  0  0  0  0  0  0  0
   -1.2850    3.7440    1.3320 H   0  0  0  0  0  0  0  0  0  0  0  0
   -1.0490   -2.0770    2.4700 H   0  0  0  0  0  0  0  0  0  0  0  0
    0.3210   -2.9040   -1.4310 H   0  0  0  0  0  0  0  0  0  0  0  0
    0.5170    4.4000   -1.2680 H   0  0  0  0  0  0  0  0  0  0  0  0
    1.8580    4.4300   -2.3900 H   0  0  0  0  0  0  0  0  0  0  0  0
    3.8210    4.0720   -1.2790 H   0  0  0  0  0  0  0  0  0  0  0  0
    4.3300    1.2180    1.7190 H   0  0  0  0  0  0  0  0  0  0  0  0
    1.0870    1.8370   -2.8580 H   0  0  0  0  0  0  0  0  0  0  0  0
    0.5210    3.2270   -3.7530 H   0  0  0  0  0  0  0  0  0  0  0  0
   -1.7400    3.1430   -4.0870 H   0  0  0  0  0  0  0  0  0  0  0  0
   -4.4830    1.9040   -1.1990 H   0  0  0  0  0  0  0  0  0  0  0  0
   -0.4990   -3.6780    0.7210 H   0  0  0  0  0  0  0  0  0  0  0  0
    5.2400    2.9410    0.2780 H   0  0  0  0  0  0  0  0  0  0  0  0
   -4.0050    2.7810   -3.4060 H   0  0  0  0  0  0  0  0  0  0  0  0
  1  2  1  0  0  0  0
  1  5  1  0  0  0  0
  1  3  1  0  0  0  0
  1  4  1  0  0  0  0
  2  6  2  0  0  0  0
  2  7  1  0  0  0  0
  3  9  2  0  0  0  0
  3  8  1  0  0  0  0
  4 11  2  0  0  0  0
  4 10  1  0  0  0  0
  5 13  1  0  0  0  0
  5 12  1  0  0  0  0
  6 14  1  0  0  0  0
  6 12  1  0  0  0  0
  7 15  2  0  0  0  0
  7 26  1  0  0  0  0
  8 17  2  0  0  0  0
  8 16  1  0  0  0  0
  9 18  1  0  0  0  0
  9 27  1  0  0  0  0
 10 19  1  0  0  0  0
 10 20  2  0  0  0  0
 11 28  1  0  0  0  0
 11 21  1  0  0  0  0
 12 22  2  0  0  0  0
 13 30  1  0  0  0  0
 13 29  1  0  0  0  0
 13 31  1  0  0  0  0
 14 32  1  0  0  0  0
 14 23  2  0  0  0  0
 15 23  1  0  0  0  0
 15 33  1  0  0  0  0
 16 34  1  0  0  0  0
 16 19  1  0  0  0  0
 16 35  1  0  0  0  0
 17 24  1  0  0  0  0
 17 36  1  0  0  0  0
 18 37  1  0  0  0  0
 18 24  2  0  0  0  0
 19 38  1  0  0  0  0
 19 39  1  0  0  0  0
 20 25  1  0  0  0  0
 20 40  1  0  0  0  0
 21 41  1  0  0  0  0
 21 25  2  0  0  0  0
 23 42  1  0  0  0  0
 24 43  1  0  0  0  0
 25 44  1  0  0  0  0
M  END
