decoy-934
 OpenBabel06062114513D

 65 64  0  0  0  0  0  0  0  0999 V2000
   -0.4870    1.6190   -0.3250 P   0  0  0  0  0  0  0  0  0  0  0  0
   -0.3510    0.0680   -0.2470 O   0  0  0  0  0  0  0  0  0  0  0  0
    0.9330    2.2050   -0.0590 O   0  0  0  0  0  0  0  0  0  0  0  0
   -1.0420    2.0840   -1.7060 O   0  0  0  0  0  0  0  0  0  0  0  0
   -1.3770    2.0670    0.7180 O   0  0  0  0  0  0  0  0  0  0  0  0
   -1.5700   -0.6850   -0.4000 C   0  0  0  0  0  0  0  0  0  0  0  0
    1.0330    3.6440   -0.0310 C   0  0  0  0  0  0  0  0  0  0  0  0
   -0.2530    1.7100   -2.8540 C   0  0  0  0  0  0  0  0  0  0  0  0
   -1.2400   -2.1890   -0.3410 C   0  0  0  0  0  0  0  0  0  0  0  0
    2.5140    4.0370    0.1220 C   0  0  0  0  0  0  0  0  0  0  0  0
   -0.8990    2.3100   -4.1170 C   0  0  0  0  0  0  0  0  0  0  0  0
   -0.6430   -2.5000    0.9310 O   0  0  0  0  0  0  0  0  0  0  0  0
    3.2550    3.5410   -1.0080 O   0  0  0  0  0  0  0  0  0  0  0  0
   -0.9140    3.7450   -4.0040 O   0  0  0  0  0  0  0  0  0  0  0  0
   -0.2950   -3.8860    1.1090 C   0  0  0  0  0  0  0  0  0  0  0  0
    4.6630    3.8370   -0.9830 C   0  0  0  0  0  0  0  0  0  0  0  0
   -1.4990    4.4320   -5.1250 C   0  0  0  0  0  0  0  0  0  0  0  0
    0.3450   -4.0690    2.5040 C   0  0  0  0  0  0  0  0  0  0  0  0
    5.3240    3.2410   -2.2470 C   0  0  0  0  0  0  0  0  0  0  0  0
   -1.4540    5.9550   -4.8600 C   0  0  0  0  0  0  0  0  0  0  0  0
    0.7420   -5.5410    2.7920 C   0  0  0  0  0  0  0  0  0  0  0  0
    6.8510    3.5080   -2.3060 C   0  0  0  0  0  0  0  0  0  0  0  0
   -2.0650    6.7840   -6.0200 C   0  0  0  0  0  0  0  0  0  0  0  0
    1.3880   -5.7230    4.1840 C   0  0  0  0  0  0  0  0  0  0  0  0
    7.5110    2.9100   -3.5680 C   0  0  0  0  0  0  0  0  0  0  0  0
   -2.0210    8.3040   -5.7530 C   0  0  0  0  0  0  0  0  0  0  0  0
   -2.2770   -0.4540    0.4030 H   0  0  0  0  0  0  0  0  0  0  0  0
   -2.0480   -0.4760   -1.3620 H   0  0  0  0  0  0  0  0  0  0  0  0
    0.6510    4.0940   -0.9530 H   0  0  0  0  0  0  0  0  0  0  0  0
    0.4750    4.0510    0.8180 H   0  0  0  0  0  0  0  0  0  0  0  0
    0.7720    2.0900   -2.7790 H   0  0  0  0  0  0  0  0  0  0  0  0
   -0.2170    0.6220   -2.9660 H   0  0  0  0  0  0  0  0  0  0  0  0
   -2.1650   -2.7580   -0.4760 H   0  0  0  0  0  0  0  0  0  0  0  0
   -0.5540   -2.4340   -1.1570 H   0  0  0  0  0  0  0  0  0  0  0  0
    2.5870    5.1270    0.1750 H   0  0  0  0  0  0  0  0  0  0  0  0
    2.9010    3.6110    1.0530 H   0  0  0  0  0  0  0  0  0  0  0  0
   -0.3170    2.0040   -4.9910 H   0  0  0  0  0  0  0  0  0  0  0  0
   -1.9170    1.9220   -4.2150 H   0  0  0  0  0  0  0  0  0  0  0  0
   -1.1920   -4.5090    1.0390 H   0  0  0  0  0  0  0  0  0  0  0  0
    0.4190   -4.1980    0.3410 H   0  0  0  0  0  0  0  0  0  0  0  0
    4.8190    4.9190   -0.9690 H   0  0  0  0  0  0  0  0  0  0  0  0
    5.1240    3.3970   -0.0930 H   0  0  0  0  0  0  0  0  0  0  0  0
   -0.9400    4.2070   -6.0380 H   0  0  0  0  0  0  0  0  0  0  0  0
   -2.5390    4.1200   -5.2580 H   0  0  0  0  0  0  0  0  0  0  0  0
    1.2350   -3.4370    2.5670 H   0  0  0  0  0  0  0  0  0  0  0  0
   -0.3660   -3.7330    3.2640 H   0  0  0  0  0  0  0  0  0  0  0  0
    5.1460    2.1620   -2.2600 H   0  0  0  0  0  0  0  0  0  0  0  0
    4.8480    3.6750   -3.1300 H   0  0  0  0  0  0  0  0  0  0  0  0
   -2.0030    6.1660   -3.9390 H   0  0  0  0  0  0  0  0  0  0  0  0
   -0.4120    6.2540   -4.7130 H   0  0  0  0  0  0  0  0  0  0  0  0
   -0.1480   -6.1740    2.7350 H   0  0  0  0  0  0  0  0  0  0  0  0
    1.4510   -5.8810    2.0320 H   0  0  0  0  0  0  0  0  0  0  0  0
    7.0310    4.5860   -2.2970 H   0  0  0  0  0  0  0  0  0  0  0  0
    7.3300    3.0740   -1.4240 H   0  0  0  0  0  0  0  0  0  0  0  0
   -1.5150    6.5760   -6.9430 H   0  0  0  0  0  0  0  0  0  0  0  0
   -3.1060    6.4860   -6.1700 H   0  0  0  0  0  0  0  0  0  0  0  0
    1.6430   -6.7730    4.3380 H   0  0  0  0  0  0  0  0  0  0  0  0
    2.3000   -5.1280    4.2610 H   0  0  0  0  0  0  0  0  0  0  0  0
    0.6940   -5.4140    4.9680 H   0  0  0  0  0  0  0  0  0  0  0  0
    8.5820    3.1240   -3.5610 H   0  0  0  0  0  0  0  0  0  0  0  0
    7.3730    1.8270   -3.5940 H   0  0  0  0  0  0  0  0  0  0  0  0
    7.0750    3.3450   -4.4690 H   0  0  0  0  0  0  0  0  0  0  0  0
   -2.4600    8.8400   -6.5960 H   0  0  0  0  0  0  0  0  0  0  0  0
   -2.5870    8.5490   -4.8520 H   0  0  0  0  0  0  0  0  0  0  0  0
   -0.9890    8.6390   -5.6270 H   0  0  0  0  0  0  0  0  0  0  0  0
  1  2  1  0  0  0  0
  1  3  1  0  0  0  0
  1  5  2  0  0  0  0
  1  4  1  0  0  0  0
  2  6  1  0  0  0  0
  3  7  1  0  0  0  0
  4  8  1  0  0  0  0
  6  9  1  0  0  0  0
  6 27  1  0  0  0  0
  6 28  1  0  0  0  0
  7 10  1  0  0  0  0
  7 30  1  0  0  0  0
  7 29  1  0  0  0  0
  8 31  1  0  0  0  0
  8 11  1  0  0  0  0
  8 32  1  0  0  0  0
  9 12  1  0  0  0  0
  9 33  1  0  0  0  0
  9 34  1  0  0  0  0
 10 35  1  0  0  0  0
 10 36  1  0  0  0  0
 10 13  1  0  0  0  0
 11 14  1  0  0  0  0
 11 37  1  0  0  0  0
 11 38  1  0  0  0  0
 12 15  1  0  0  0  0
 13 16  1  0  0  0  0
 14 17  1  0  0  0  0
 15 18  1  0  0  0  0
 15 39  1  0  0  0  0
 15 40  1  0  0  0  0
 16 41  1  0  0  0  0
 16 42  1  0  0  0  0
 16 19  1  0  0  0  0
 17 20  1  0  0  0  0
 17 43  1  0  0  0  0
 17 44  1  0  0  0  0
 18 45  1  0  0  0  0
 18 21  1  0  0  0  0
 18 46  1  0  0  0  0
 19 22  1  0  0  0  0
 19 47  1  0  0  0  0
 19 48  1  0  0  0  0
 20 50  1  0  0  0  0
 20 49  1  0  0  0  0
 20 23  1  0  0  0  0
 21 24  1  0  0  0  0
 21 51  1  0  0  0  0
 21 52  1  0  0  0  0
 22 53  1  0  0  0  0
 22 54  1  0  0  0  0
 22 25  1  0  0  0  0
 23 26  1  0  0  0  0
 23 55  1  0  0  0  0
 23 56  1  0  0  0  0
 24 58  1  0  0  0  0
 24 57  1  0  0  0  0
 24 59  1  0  0  0  0
 25 60  1  0  0  0  0
 25 61  1  0  0  0  0
 25 62  1  0  0  0  0
 26 65  1  0  0  0  0
 26 64  1  0  0  0  0
 26 63  1  0  0  0  0
M  END
