decoy-981
 OpenBabel06062114513D

 82 86  0  0  0  0  0  0  0  0999 V2000
   -0.8810    3.3660   -0.1610 C   0  0  0  0  0  0  0  0  0  0  0  0
   -1.0740    1.9590    0.3180 C   0  0  0  0  0  0  0  0  0  0  0  0
    0.6630    3.8550    0.0730 C   0  0  0  0  0  0  0  0  0  0  0  0
   -1.9590    4.3160    0.5270 C   0  0  0  0  0  0  0  0  0  0  0  0
   -1.2550    3.3310   -1.7090 C   0  0  0  0  0  0  0  0  0  0  0  0
   -2.3530    1.4990    0.9620 C   0  0  0  0  0  0  0  0  0  0  0  0
   -0.0670    1.0640    0.1740 C   0  0  0  0  0  0  0  0  0  0  0  0
    1.6380    2.8280   -0.6570 C   0  0  0  0  0  0  0  0  0  0  0  0
    0.9820    5.2980   -0.4990 C   0  0  0  0  0  0  0  0  0  0  0  0
    0.9960    3.9180    1.6100 C   0  0  0  0  0  0  0  0  0  0  0  0
   -2.5360    3.9200    1.9250 C   0  0  0  0  0  0  0  0  0  0  0  0
   -2.6620    2.3760    2.2470 C   0  0  0  0  0  0  0  0  0  0  0  0
   -3.5630    1.3320   -0.0470 C   0  0  0  0  0  0  0  0  0  0  0  0
    1.2910    1.3460   -0.2670 C   0  0  0  0  0  0  0  0  0  0  0  0
    3.2010    3.1860   -0.7570 C   0  0  0  0  0  0  0  0  0  0  0  0
    2.4840    5.6860   -0.6360 C   0  0  0  0  0  0  0  0  0  0  0  0
   -4.0870    2.0310    2.8270 C   0  0  0  0  0  0  0  0  0  0  0  0
   -1.6610    1.9830    3.4020 C   0  0  0  0  0  0  0  0  0  0  0  0
   -4.9070    0.9490    0.6700 C   0  0  0  0  0  0  0  0  0  0  0  0
   -3.2200    0.3070   -1.1770 C   0  0  0  0  0  0  0  0  0  0  0  0
    3.3150    4.6250   -1.4370 C   0  0  0  0  0  0  0  0  0  0  0  0
    3.8910    2.1560   -1.7380 C   0  0  0  0  0  0  0  0  0  0  0  0
    3.9330    3.0860    0.6420 C   0  0  0  0  0  0  0  0  0  0  0  0
   -5.2200    1.9890    1.7810 C   0  0  0  0  0  0  0  0  0  0  0  0
   -1.8840    2.7060    4.6120 O   0  0  0  0  0  0  0  0  0  0  0  0
   -6.1370    0.8380   -0.2800 C   0  0  0  0  0  0  0  0  0  0  0  0
    4.7610    5.0920   -1.9280 C   0  0  0  0  0  0  0  0  0  0  0  0
    5.3170    2.5380   -2.2150 C   0  0  0  0  0  0  0  0  0  0  0  0
    5.3650    3.9530   -2.8400 C   0  0  0  0  0  0  0  0  0  0  0  0
    4.6480    6.3830   -2.8230 C   0  0  0  0  0  0  0  0  0  0  0  0
    5.7470    5.4550   -0.7650 C   0  0  0  0  0  0  0  0  0  0  0  0
    6.7230    4.2000   -3.2170 O   0  0  0  0  0  0  0  0  0  0  0  0
   -2.2250    0.4800    1.3460 H   0  0  0  0  0  0  0  0  0  0  0  0
    1.3370    2.8800   -1.7020 H   0  0  0  0  0  0  0  0  0  0  0  0
    2.7620    4.5370   -2.3800 H   0  0  0  0  0  0  0  0  0  0  0  0
   -1.5740    5.3320    0.6030 H   0  0  0  0  0  0  0  0  0  0  0  0
   -2.8370    4.4200   -0.1160 H   0  0  0  0  0  0  0  0  0  0  0  0
   -0.7070    2.5760   -2.2690 H   0  0  0  0  0  0  0  0  0  0  0  0
   -2.2990    3.0990   -1.8890 H   0  0  0  0  0  0  0  0  0  0  0  0
   -1.1060    4.2900   -2.1940 H   0  0  0  0  0  0  0  0  0  0  0  0
   -0.2290    0.1180    0.4370 H   0  0  0  0  0  0  0  0  0  0  0  0
    0.5700    5.4130   -1.4970 H   0  0  0  0  0  0  0  0  0  0  0  0
    0.5080    6.0640    0.1180 H   0  0  0  0  0  0  0  0  0  0  0  0
    1.1150    2.9240    2.0300 H   0  0  0  0  0  0  0  0  0  0  0  0
    1.9110    4.4550    1.8280 H   0  0  0  0  0  0  0  0  0  0  0  0
    0.2290    4.4420    2.1650 H   0  0  0  0  0  0  0  0  0  0  0  0
   -1.9440    4.4190    2.6930 H   0  0  0  0  0  0  0  0  0  0  0  0
   -3.5160    4.3990    2.0040 H   0  0  0  0  0  0  0  0  0  0  0  0
   -3.7630    2.2900   -0.5190 H   0  0  0  0  0  0  0  0  0  0  0  0
    1.9440    1.0050    0.5340 H   0  0  0  0  0  0  0  0  0  0  0  0
    1.4870    0.6970   -1.1260 H   0  0  0  0  0  0  0  0  0  0  0  0
    2.5010    6.6450   -1.1550 H   0  0  0  0  0  0  0  0  0  0  0  0
    2.9190    5.8690    0.3440 H   0  0  0  0  0  0  0  0  0  0  0  0
   -4.0740    1.0480    3.3110 H   0  0  0  0  0  0  0  0  0  0  0  0
   -4.3620    2.7560    3.6000 H   0  0  0  0  0  0  0  0  0  0  0  0
   -1.7370    0.9190    3.6410 H   0  0  0  0  0  0  0  0  0  0  0  0
   -0.6370    2.1600    3.1070 H   0  0  0  0  0  0  0  0  0  0  0  0
   -4.7830   -0.0300    1.1450 H   0  0  0  0  0  0  0  0  0  0  0  0
   -2.2580    0.5230   -1.6390 H   0  0  0  0  0  0  0  0  0  0  0  0
   -3.1830   -0.7070   -0.7740 H   0  0  0  0  0  0  0  0  0  0  0  0
   -3.9620    0.3430   -1.9740 H   0  0  0  0  0  0  0  0  0  0  0  0
    3.9510    1.1720   -1.2640 H   0  0  0  0  0  0  0  0  0  0  0  0
    3.2810    2.0350   -2.6380 H   0  0  0  0  0  0  0  0  0  0  0  0
    4.0340    4.0530    1.1240 H   0  0  0  0  0  0  0  0  0  0  0  0
    3.4150    2.4350    1.3390 H   0  0  0  0  0  0  0  0  0  0  0  0
    4.9390    2.6790    0.5680 H   0  0  0  0  0  0  0  0  0  0  0  0
   -6.1470    1.7180    2.2960 H   0  0  0  0  0  0  0  0  0  0  0  0
   -5.3640    2.9800    1.3430 H   0  0  0  0  0  0  0  0  0  0  0  0
   -1.2060    2.3720    5.2360 H   0  0  0  0  0  0  0  0  0  0  0  0
   -6.0320   -0.0130   -0.9540 H   0  0  0  0  0  0  0  0  0  0  0  0
   -7.0550    0.6820    0.2910 H   0  0  0  0  0  0  0  0  0  0  0  0
   -6.2490    1.7470   -0.8750 H   0  0  0  0  0  0  0  0  0  0  0  0
    6.0320    2.4690   -1.3950 H   0  0  0  0  0  0  0  0  0  0  0  0
    5.6340    1.8090   -2.9670 H   0  0  0  0  0  0  0  0  0  0  0  0
    4.7910    3.9040   -3.7720 H   0  0  0  0  0  0  0  0  0  0  0  0
    4.3770    7.2600   -2.2350 H   0  0  0  0  0  0  0  0  0  0  0  0
    5.5970    6.6190   -3.3080 H   0  0  0  0  0  0  0  0  0  0  0  0
    3.9000    6.2550   -3.6090 H   0  0  0  0  0  0  0  0  0  0  0  0
    6.0570    4.5800   -0.2020 H   0  0  0  0  0  0  0  0  0  0  0  0
    6.6580    5.9140   -1.1530 H   0  0  0  0  0  0  0  0  0  0  0  0
    5.2910    6.1640   -0.0730 H   0  0  0  0  0  0  0  0  0  0  0  0
    6.7010    5.0040   -3.7750 H   0  0  0  0  0  0  0  0  0  0  0  0
  1  3  1  0  0  0  0
  1  2  1  0  0  0  0
  1  4  1  0  0  0  0
  1  5  1  0  0  0  0
  2  6  1  0  0  0  0
  2  7  2  0  0  0  0
  3  8  1  0  0  0  0
  3 10  1  0  0  0  0
  3  9  1  0  0  0  0
  4 36  1  0  0  0  0
  4 11  1  0  0  0  0
  4 37  1  0  0  0  0
  5 38  1  0  0  0  0
  5 39  1  0  0  0  0
  5 40  1  0  0  0  0
  6 13  1  0  0  0  0
  6 33  1  0  0  0  0
  6 12  1  0  0  0  0
  7 41  1  0  0  0  0
  7 14  1  0  0  0  0
  8 15  1  0  0  0  0
  8 14  1  0  0  0  0
  8 34  1  0  0  0  0
  9 43  1  0  0  0  0
  9 16  1  0  0  0  0
  9 42  1  0  0  0  0
 10 45  1  0  0  0  0
 10 44  1  0  0  0  0
 10 46  1  0  0  0  0
 11 48  1  0  0  0  0
 11 12  1  0  0  0  0
 11 47  1  0  0  0  0
 12 17  1  0  0  0  0
 12 18  1  0  0  0  0
 13 19  1  0  0  0  0
 13 20  1  0  0  0  0
 13 49  1  0  0  0  0
 14 50  1  0  0  0  0
 14 51  1  0  0  0  0
 15 21  1  0  0  0  0
 15 23  1  0  0  0  0
 15 22  1  0  0  0  0
 16 53  1  0  0  0  0
 16 21  1  0  0  0  0
 16 52  1  0  0  0  0
 17 54  1  0  0  0  0
 17 55  1  0  0  0  0
 17 24  1  0  0  0  0
 18 56  1  0  0  0  0
 18 25  1  0  0  0  0
 18 57  1  0  0  0  0
 19 58  1  0  0  0  0
 19 24  1  0  0  0  0
 19 26  1  0  0  0  0
 20 60  1  0  0  0  0
 20 59  1  0  0  0  0
 20 61  1  0  0  0  0
 21 35  1  0  0  0  0
 21 27  1  0  0  0  0
 22 62  1  0  0  0  0
 22 28  1  0  0  0  0
 22 63  1  0  0  0  0
 23 64  1  0  0  0  0
 23 65  1  0  0  0  0
 23 66  1  0  0  0  0
 24 67  1  0  0  0  0
 24 68  1  0  0  0  0
 25 69  1  0  0  0  0
 26 71  1  0  0  0  0
 26 70  1  0  0  0  0
 26 72  1  0  0  0  0
 27 31  1  0  0  0  0
 27 29  1  0  0  0  0
 27 30  1  0  0  0  0
 28 73  1  0  0  0  0
 28 29  1  0  0  0  0
 28 74  1  0  0  0  0
 29 75  1  0  0  0  0
 29 32  1  0  0  0  0
 30 76  1  0  0  0  0
 30 77  1  0  0  0  0
 30 78  1  0  0  0  0
 31 79  1  0  0  0  0
 31 81  1  0  0  0  0
 31 80  1  0  0  0  0
 32 82  1  0  0  0  0
M  END
