decoy-331
 OpenBabel06062114513D

 47 49  0  0  0  0  0  0  0  0999 V2000
    0.0880    1.2800   -0.0260 C   0  0  0  0  0  0  0  0  0  0  0  0
   -0.5350   -0.0460    0.4020 C   0  0  0  0  0  0  0  0  0  0  0  0
    1.6020    1.2480   -0.1990 C   0  0  0  0  0  0  0  0  0  0  0  0
   -0.4020    1.7980   -1.3730 C   0  0  0  0  0  0  0  0  0  0  0  0
   -0.5160    2.4430    1.2690 S   0  0  0  0  0  0  0  0  0  0  0  0
   -1.9480   -0.2200    0.3600 C   0  0  0  0  0  0  0  0  0  0  0  0
    0.2190   -1.1180    0.9550 C   0  0  0  0  0  0  0  0  0  0  0  0
    2.1840    0.3020   -1.0900 C   0  0  0  0  0  0  0  0  0  0  0  0
    2.4930    2.1750    0.4100 C   0  0  0  0  0  0  0  0  0  0  0  0
   -0.2240    3.1630   -1.7380 C   0  0  0  0  0  0  0  0  0  0  0  0
   -0.9260    0.9400   -2.3810 C   0  0  0  0  0  0  0  0  0  0  0  0
    0.0510    1.7110    2.8320 C   0  0  0  0  0  0  0  0  0  0  0  0
   -2.5640   -1.4110    0.7820 C   0  0  0  0  0  0  0  0  0  0  0  0
   -0.3920   -2.3120    1.3800 C   0  0  0  0  0  0  0  0  0  0  0  0
    3.5700    0.2470   -1.3180 C   0  0  0  0  0  0  0  0  0  0  0  0
    3.8810    2.1250    0.1870 C   0  0  0  0  0  0  0  0  0  0  0  0
   -0.6180    3.6570   -2.9940 C   0  0  0  0  0  0  0  0  0  0  0  0
   -1.3230    1.4260   -3.6400 C   0  0  0  0  0  0  0  0  0  0  0  0
   -0.0490    2.7240    4.0010 C   0  0  0  0  0  0  0  0  0  0  0  0
   -1.7840   -2.4620    1.2870 C   0  0  0  0  0  0  0  0  0  0  0  0
    4.4220    1.1570   -0.6730 C   0  0  0  0  0  0  0  0  0  0  0  0
   -1.1780    2.7890   -3.9440 C   0  0  0  0  0  0  0  0  0  0  0  0
    0.2740    2.0890    5.2940 C   0  0  0  0  0  0  0  0  0  0  0  0
    0.8570    3.8640    3.7980 C   0  0  0  0  0  0  0  0  0  0  0  0
   -0.6470    2.0270    6.2820 O   0  0  0  0  0  0  0  0  0  0  0  0
    1.4980    1.5590    5.5210 O   0  0  0  0  0  0  0  0  0  0  0  0
   -2.5470    0.5340    0.0150 H   0  0  0  0  0  0  0  0  0  0  0  0
    1.2280   -1.0380    1.0850 H   0  0  0  0  0  0  0  0  0  0  0  0
    1.5920   -0.3720   -1.5810 H   0  0  0  0  0  0  0  0  0  0  0  0
    2.1480    2.9180    1.0170 H   0  0  0  0  0  0  0  0  0  0  0  0
    0.2100    3.8190   -1.0850 H   0  0  0  0  0  0  0  0  0  0  0  0
   -1.0070   -0.0650   -2.2200 H   0  0  0  0  0  0  0  0  0  0  0  0
   -0.5820    0.8490    3.0530 H   0  0  0  0  0  0  0  0  0  0  0  0
    1.0810    1.3660    2.7320 H   0  0  0  0  0  0  0  0  0  0  0  0
   -3.5810   -1.5090    0.7290 H   0  0  0  0  0  0  0  0  0  0  0  0
    0.1770   -3.0680    1.7700 H   0  0  0  0  0  0  0  0  0  0  0  0
    3.9580   -0.4530   -1.9550 H   0  0  0  0  0  0  0  0  0  0  0  0
    4.4980    2.8010    0.6430 H   0  0  0  0  0  0  0  0  0  0  0  0
   -0.4870    4.6450   -3.2210 H   0  0  0  0  0  0  0  0  0  0  0  0
   -1.7040    0.7860   -4.3400 H   0  0  0  0  0  0  0  0  0  0  0  0
   -1.0700    3.1120    4.0440 H   0  0  0  0  0  0  0  0  0  0  0  0
   -2.2290   -3.3280    1.6000 H   0  0  0  0  0  0  0  0  0  0  0  0
    5.4300    1.1220   -0.8390 H   0  0  0  0  0  0  0  0  0  0  0  0
   -1.4600    3.1430   -4.8610 H   0  0  0  0  0  0  0  0  0  0  0  0
    0.7670    4.5170    4.5800 H   0  0  0  0  0  0  0  0  0  0  0  0
    1.8230    3.5320    3.7440 H   0  0  0  0  0  0  0  0  0  0  0  0
    0.6160    4.3460    2.9300 H   0  0  0  0  0  0  0  0  0  0  0  0
  1  2  1  0  0  0  0
  1  5  1  0  0  0  0
  1  3  1  0  0  0  0
  1  4  1  0  0  0  0
  2  7  2  0  0  0  0
  2  6  1  0  0  0  0
  3  9  2  0  0  0  0
  3  8  1  0  0  0  0
  4 10  2  0  0  0  0
  4 11  1  0  0  0  0
  5 12  1  0  0  0  0
  6 13  2  0  0  0  0
  6 27  1  0  0  0  0
  7 28  1  0  0  0  0
  7 14  1  0  0  0  0
  8 15  2  0  0  0  0
  8 29  1  0  0  0  0
  9 30  1  0  0  0  0
  9 16  1  0  0  0  0
 10 31  1  0  0  0  0
 10 17  1  0  0  0  0
 11 32  1  0  0  0  0
 11 18  2  0  0  0  0
 12 33  1  0  0  0  0
 12 19  1  0  0  0  0
 12 34  1  0  0  0  0
 13 20  1  0  0  0  0
 13 35  1  0  0  0  0
 14 36  1  0  0  0  0
 14 20  2  0  0  0  0
 15 21  1  0  0  0  0
 15 37  1  0  0  0  0
 16 38  1  0  0  0  0
 16 21  2  0  0  0  0
 17 22  2  0  0  0  0
 17 39  1  0  0  0  0
 18 22  1  0  0  0  0
 18 40  1  0  0  0  0
 19 41  1  0  0  0  0
 19 23  1  0  0  0  0
 19 24  1  0  0  0  0
 20 42  1  0  0  0  0
 21 43  1  0  0  0  0
 22 44  1  0  0  0  0
 23 26  2  0  0  0  0
 23 25  1  0  0  0  0
 24 45  1  0  0  0  0
 24 46  1  0  0  0  0
 24 47  1  0  0  0  0
M  END
