decoy-764
 OpenBabel06062114513D

 48 47  0  0  0  0  0  0  0  0999 V2000
    2.9980    1.8960    2.6910 C   0  0  0  0  0  0  0  0  0  0  0  0
    2.5560    0.5000    2.3410 C   0  0  0  0  0  0  0  0  0  0  0  0
    4.4600    1.9800    3.0280 C   0  0  0  0  0  0  0  0  0  0  0  0
    2.5810    2.9120    1.6640 C   0  0  0  0  0  0  0  0  0  0  0  0
    2.2530   -0.3570    3.5930 C   0  0  0  0  0  0  0  0  0  0  0  0
    4.8110    3.1230    3.8920 C   0  0  0  0  0  0  0  0  0  0  0  0
    1.1460    3.2540    1.7090 C   0  0  0  0  0  0  0  0  0  0  0  0
    1.2710    0.3230    4.3950 O   0  0  0  0  0  0  0  0  0  0  0  0
    6.1030    3.3330    4.2270 O   0  0  0  0  0  0  0  0  0  0  0  0
    3.8680    3.9050    4.4650 O   0  0  0  0  0  0  0  0  0  0  0  0
    0.6400    4.1250    0.8080 O   0  0  0  0  0  0  0  0  0  0  0  0
    0.3290    2.8040    2.6890 O   0  0  0  0  0  0  0  0  0  0  0  0
    0.8210   -0.3960    5.5550 C   0  0  0  0  0  0  0  0  0  0  0  0
   -0.1990    0.4710    6.3180 C   0  0  0  0  0  0  0  0  0  0  0  0
   -1.2660    0.8380    5.4250 O   0  0  0  0  0  0  0  0  0  0  0  0
   -2.3240    1.6080    6.0190 C   0  0  0  0  0  0  0  0  0  0  0  0
   -3.4080    1.9570    4.9690 C   0  0  0  0  0  0  0  0  0  0  0  0
   -4.2970    0.8200    4.5360 C   0  0  0  0  0  0  0  0  0  0  0  0
   -5.5030    1.3180    3.7870 C   0  0  0  0  0  0  0  0  0  0  0  0
   -3.5760   -0.2850    3.8020 C   0  0  0  0  0  0  0  0  0  0  0  0
   -6.6290    0.3640    3.7460 C   0  0  0  0  0  0  0  0  0  0  0  0
   -3.1270   -1.3840    4.6770 C   0  0  0  0  0  0  0  0  0  0  0  0
   -7.7480    0.6830    3.0580 O   0  0  0  0  0  0  0  0  0  0  0  0
   -6.6310   -0.7750    4.4750 O   0  0  0  0  0  0  0  0  0  0  0  0
   -2.3990   -2.3960    4.1540 O   0  0  0  0  0  0  0  0  0  0  0  0
   -3.5060   -1.4770    5.9710 O   0  0  0  0  0  0  0  0  0  0  0  0
    1.6350    0.5170    1.7510 H   0  0  0  0  0  0  0  0  0  0  0  0
    3.3110   -0.0040    1.7290 H   0  0  0  0  0  0  0  0  0  0  0  0
    4.7870    1.0890    3.5670 H   0  0  0  0  0  0  0  0  0  0  0  0
    5.0520    2.0370    2.1100 H   0  0  0  0  0  0  0  0  0  0  0  0
    3.1170    3.8530    1.8090 H   0  0  0  0  0  0  0  0  0  0  0  0
    2.8270    2.5520    0.6610 H   0  0  0  0  0  0  0  0  0  0  0  0
    1.8720   -1.3290    3.2680 H   0  0  0  0  0  0  0  0  0  0  0  0
    3.1660   -0.5190    4.1700 H   0  0  0  0  0  0  0  0  0  0  0  0
    0.3390   -1.3320    5.2580 H   0  0  0  0  0  0  0  0  0  0  0  0
    1.6610   -0.6240    6.2180 H   0  0  0  0  0  0  0  0  0  0  0  0
   -0.5850   -0.1010    7.1670 H   0  0  0  0  0  0  0  0  0  0  0  0
    0.3040    1.3670    6.6930 H   0  0  0  0  0  0  0  0  0  0  0  0
   -2.7890    1.0610    6.8430 H   0  0  0  0  0  0  0  0  0  0  0  0
   -1.9100    2.5420    6.4140 H   0  0  0  0  0  0  0  0  0  0  0  0
   -4.0230    2.7320    5.4350 H   0  0  0  0  0  0  0  0  0  0  0  0
   -2.9270    2.4120    4.0970 H   0  0  0  0  0  0  0  0  0  0  0  0
   -5.9060    2.2210    4.2540 H   0  0  0  0  0  0  0  0  0  0  0  0
   -5.2220    1.5780    2.7620 H   0  0  0  0  0  0  0  0  0  0  0  0
   -4.2150   -0.7550    3.0500 H   0  0  0  0  0  0  0  0  0  0  0  0
   -2.7120    0.1090    3.2620 H   0  0  0  0  0  0  0  0  0  0  0  0
    2.4990    2.1440    3.5480 H   0  0  0  0  0  0  0  0  0  0  0  0
   -4.6650    0.4120    5.3980 H   0  0  0  0  0  0  0  0  0  0  0  0
  1  3  1  0  0  0  0
  1 47  1  0  0  0  0
  1  2  1  0  0  0  0
  1  4  1  0  0  0  0
  2  5  1  0  0  0  0
  2 27  1  0  0  0  0
  2 28  1  0  0  0  0
  3 29  1  0  0  0  0
  3  6  1  0  0  0  0
  3 30  1  0  0  0  0
  4  7  1  0  0  0  0
  4 31  1  0  0  0  0
  4 32  1  0  0  0  0
  5 34  1  0  0  0  0
  5  8  1  0  0  0  0
  5 33  1  0  0  0  0
  6  9  2  0  0  0  0
  6 10  1  0  0  0  0
  7 12  1  0  0  0  0
  7 11  2  0  0  0  0
  8 13  1  0  0  0  0
 13 36  1  0  0  0  0
 13 14  1  0  0  0  0
 13 35  1  0  0  0  0
 14 38  1  0  0  0  0
 14 37  1  0  0  0  0
 14 15  1  0  0  0  0
 15 16  1  0  0  0  0
 16 40  1  0  0  0  0
 16 39  1  0  0  0  0
 16 17  1  0  0  0  0
 17 41  1  0  0  0  0
 17 18  1  0  0  0  0
 17 42  1  0  0  0  0
 18 48  1  0  0  0  0
 18 19  1  0  0  0  0
 18 20  1  0  0  0  0
 19 43  1  0  0  0  0
 19 21  1  0  0  0  0
 19 44  1  0  0  0  0
 20 22  1  0  0  0  0
 20 45  1  0  0  0  0
 20 46  1  0  0  0  0
 21 24  1  0  0  0  0
 21 23  2  0  0  0  0
 22 26  1  0  0  0  0
 22 25  2  0  0  0  0
M  END
