decoy-77
 OpenBabel06062114503D

 20 19  0  0  0  0  0  0  0  0999 V2000
    0.0170    1.5480    0.0090 C   0  0  0  0  0  0  0  0  0  0  0  0
   -0.0360   -0.0290    0.0010 C   0  0  0  0  0  0  0  0  0  0  0  0
    1.4540    2.1930   -0.0010 C   0  0  0  0  0  0  0  0  0  0  0  0
   -0.6780    2.0200   -1.0830 F   0  0  0  0  0  0  0  0  0  0  0  0
   -0.6570    2.0080    1.1200 F   0  0  0  0  0  0  0  0  0  0  0  0
   -1.4730   -0.6740    0.0110 C   0  0  0  0  0  0  0  0  0  0  0  0
    0.6370   -0.4890   -1.1100 F   0  0  0  0  0  0  0  0  0  0  0  0
    0.6580   -0.5020    1.0930 F   0  0  0  0  0  0  0  0  0  0  0  0
    1.4960    3.7560    0.0070 C   0  0  0  0  0  0  0  0  0  0  0  0
    2.1710    1.7560    1.0920 F   0  0  0  0  0  0  0  0  0  0  0  0
    2.1500    1.7680   -1.1130 F   0  0  0  0  0  0  0  0  0  0  0  0
   -1.5190   -2.2350    0.0030 C   0  0  0  0  0  0  0  0  0  0  0  0
   -2.1680   -0.2510    1.1230 F   0  0  0  0  0  0  0  0  0  0  0  0
   -2.1890   -0.2390   -1.0820 F   0  0  0  0  0  0  0  0  0  0  0  0
    0.9000    4.2850    1.1270 F   0  0  0  0  0  0  0  0  0  0  0  0
    2.7950    4.2110   -0.0030 F   0  0  0  0  0  0  0  0  0  0  0  0
    0.8790    4.2970   -1.0950 F   0  0  0  0  0  0  0  0  0  0  0  0
   -0.9210   -2.7630   -1.1160 F   0  0  0  0  0  0  0  0  0  0  0  0
   -0.8990   -2.7750    1.1050 F   0  0  0  0  0  0  0  0  0  0  0  0
   -3.5200   -2.9520    0.0180 I   0  0  0  0  0  0  0  0  0  0  0  0
  1  5  1  0  0  0  0
  1  2  1  0  0  0  0
  1  3  1  0  0  0  0
  1  4  1  0  0  0  0
  2  6  1  0  0  0  0
  2  8  1  0  0  0  0
  2  7  1  0  0  0  0
  3  9  1  0  0  0  0
  3 10  1  0  0  0  0
  3 11  1  0  0  0  0
  6 13  1  0  0  0  0
  6 12  1  0  0  0  0
  6 14  1  0  0  0  0
  9 15  1  0  0  0  0
  9 16  1  0  0  0  0
  9 17  1  0  0  0  0
 12 20  1  0  0  0  0
 12 19  1  0  0  0  0
 12 18  1  0  0  0  0
M  END
