decoy-743
 OpenBabel06062114513D

 29 30  0  0  0  0  0  0  0  0999 V2000
   -0.0370    1.4920    0.2090 C   0  0  0  0  0  0  0  0  0  0  0  0
   -0.0750    0.1380    0.4900 C   0  0  0  0  0  0  0  0  0  0  0  0
    1.1690    2.2410    0.2380 C   0  0  0  0  0  0  0  0  0  0  0  0
   -1.2450    2.1550   -0.1160 C   0  0  0  0  0  0  0  0  0  0  0  0
    0.7710   -0.6920   -0.0890 N   0  0  0  0  0  0  0  0  0  0  0  0
    1.1550    3.6160   -0.0730 C   0  0  0  0  0  0  0  0  0  0  0  0
    2.3670    1.6920    0.5750 O   0  0  0  0  0  0  0  0  0  0  0  0
   -1.2520    3.5280   -0.4210 C   0  0  0  0  0  0  0  0  0  0  0  0
    0.9320   -2.0360   -0.0220 C   0  0  0  0  0  0  0  0  0  0  0  0
   -0.0510    4.2580   -0.4030 C   0  0  0  0  0  0  0  0  0  0  0  0
    1.9680   -2.5950   -0.7990 C   0  0  0  0  0  0  0  0  0  0  0  0
    0.1360   -2.8960    0.7680 C   0  0  0  0  0  0  0  0  0  0  0  0
    2.2220   -3.9880   -0.8030 C   0  0  0  0  0  0  0  0  0  0  0  0
    0.3750   -4.2800    0.7750 C   0  0  0  0  0  0  0  0  0  0  0  0
    1.4110   -4.8300   -0.0030 C   0  0  0  0  0  0  0  0  0  0  0  0
    3.3190   -4.5490   -1.6290 C   0  0  0  0  0  0  0  0  0  0  0  0
    1.6560   -6.6780    0.0690 Br  0  0  0  0  0  0  0  0  0  0  0  0
   -0.7900   -0.2070    1.0860 H   0  0  0  0  0  0  0  0  0  0  0  0
   -2.1320    1.6430   -0.1420 H   0  0  0  0  0  0  0  0  0  0  0  0
    2.0230    4.1550   -0.0540 H   0  0  0  0  0  0  0  0  0  0  0  0
    2.1600    0.8650    1.0570 H   0  0  0  0  0  0  0  0  0  0  0  0
   -2.1300    3.9950   -0.6580 H   0  0  0  0  0  0  0  0  0  0  0  0
   -0.0560    5.2560   -0.6250 H   0  0  0  0  0  0  0  0  0  0  0  0
    2.5480   -1.9750   -1.3730 H   0  0  0  0  0  0  0  0  0  0  0  0
   -0.6220   -2.5270    1.3440 H   0  0  0  0  0  0  0  0  0  0  0  0
   -0.2090   -4.8890    1.3520 H   0  0  0  0  0  0  0  0  0  0  0  0
    3.8540   -3.7780   -2.1880 H   0  0  0  0  0  0  0  0  0  0  0  0
    4.0390   -5.0600   -0.9880 H   0  0  0  0  0  0  0  0  0  0  0  0
    2.9110   -5.2630   -2.3460 H   0  0  0  0  0  0  0  0  0  0  0  0
  1  3  2  0  0  0  0
  1  2  1  0  0  0  0
  1  4  1  0  0  0  0
  2 18  1  0  0  0  0
  2  5  2  0  0  0  0
  3  7  1  0  0  0  0
  3  6  1  0  0  0  0
  4  8  2  0  0  0  0
  4 19  1  0  0  0  0
  5  9  1  0  0  0  0
  6 20  1  0  0  0  0
  6 10  2  0  0  0  0
  7 21  1  0  0  0  0
  8 10  1  0  0  0  0
  8 22  1  0  0  0  0
  9 12  2  0  0  0  0
  9 11  1  0  0  0  0
 10 23  1  0  0  0  0
 11 13  2  0  0  0  0
 11 24  1  0  0  0  0
 12 14  1  0  0  0  0
 12 25  1  0  0  0  0
 13 15  1  0  0  0  0
 13 16  1  0  0  0  0
 14 26  1  0  0  0  0
 14 15  2  0  0  0  0
 15 17  1  0  0  0  0
 16 28  1  0  0  0  0
 16 27  1  0  0  0  0
 16 29  1  0  0  0  0
M  END
