decoy-789
 OpenBabel06062114513D

 31 32  0  0  0  0  0  0  0  0999 V2000
    0.0300    1.2530    0.0060 C   0  0  0  0  0  0  0  0  0  0  0  0
    0.0140   -0.1760    0.0550 C   0  0  0  0  0  0  0  0  0  0  0  0
    1.2750    2.0720    0.0510 C   0  0  0  0  0  0  0  0  0  0  0  0
   -1.1990    1.9470   -0.1210 C   0  0  0  0  0  0  0  0  0  0  0  0
   -1.2310   -0.8500   -0.0250 C   0  0  0  0  0  0  0  0  0  0  0  0
    1.2480   -0.9990    0.1870 C   0  0  0  0  0  0  0  0  0  0  0  0
    1.7720    2.6080   -1.6030 S   0  0  0  0  0  0  0  0  0  0  0  0
   -2.4210    1.2590   -0.1970 C   0  0  0  0  0  0  0  0  0  0  0  0
   -2.4360   -0.1410   -0.1490 C   0  0  0  0  0  0  0  0  0  0  0  0
    1.9090   -0.9290    1.9980 Br  0  0  0  0  0  0  0  0  0  0  0  0
    3.2970    3.4420   -1.4880 C   0  0  0  0  0  0  0  0  0  0  0  0
    1.9200    1.3370   -2.5480 O   0  0  0  0  0  0  0  0  0  0  0  0
    0.6590    3.5580   -2.2270 O   0  0  0  0  0  0  0  0  0  0  0  0
    4.5060    2.7140   -1.4980 C   0  0  0  0  0  0  0  0  0  0  0  0
    3.3370    4.8470   -1.3550 C   0  0  0  0  0  0  0  0  0  0  0  0
    5.7400    3.3830   -1.3890 C   0  0  0  0  0  0  0  0  0  0  0  0
    4.5720    5.5150   -1.2470 C   0  0  0  0  0  0  0  0  0  0  0  0
    5.7730    4.7840   -1.2650 C   0  0  0  0  0  0  0  0  0  0  0  0
    1.1250    2.9560    0.6750 H   0  0  0  0  0  0  0  0  0  0  0  0
    2.1100    1.5280    0.4860 H   0  0  0  0  0  0  0  0  0  0  0  0
   -1.2160    2.9700   -0.1590 H   0  0  0  0  0  0  0  0  0  0  0  0
   -1.2740   -1.8720    0.0120 H   0  0  0  0  0  0  0  0  0  0  0  0
    1.0660   -2.0500   -0.0480 H   0  0  0  0  0  0  0  0  0  0  0  0
    2.0190   -0.6520   -0.5010 H   0  0  0  0  0  0  0  0  0  0  0  0
   -3.2970    1.7780   -0.2870 H   0  0  0  0  0  0  0  0  0  0  0  0
   -3.3250   -0.6450   -0.2030 H   0  0  0  0  0  0  0  0  0  0  0  0
    4.4970    1.6950   -1.5800 H   0  0  0  0  0  0  0  0  0  0  0  0
    2.4720    5.3920   -1.3330 H   0  0  0  0  0  0  0  0  0  0  0  0
    6.6130    2.8500   -1.3980 H   0  0  0  0  0  0  0  0  0  0  0  0
    4.5950    6.5330   -1.1520 H   0  0  0  0  0  0  0  0  0  0  0  0
    6.6690    5.2690   -1.1850 H   0  0  0  0  0  0  0  0  0  0  0  0
  1  3  1  0  0  0  0
  1  2  2  0  0  0  0
  1  4  1  0  0  0  0
  2  6  1  0  0  0  0
  2  5  1  0  0  0  0
  3 20  1  0  0  0  0
  3 19  1  0  0  0  0
  3  7  1  0  0  0  0
  4  8  2  0  0  0  0
  4 21  1  0  0  0  0
  5 22  1  0  0  0  0
  5  9  2  0  0  0  0
  6 10  1  0  0  0  0
  6 23  1  0  0  0  0
  6 24  1  0  0  0  0
  7 11  1  0  0  0  0
  7 12  2  0  0  0  0
  7 13  2  0  0  0  0
  8  9  1  0  0  0  0
  8 25  1  0  0  0  0
  9 26  1  0  0  0  0
 11 15  2  0  0  0  0
 11 14  1  0  0  0  0
 14 16  2  0  0  0  0
 14 27  1  0  0  0  0
 15 28  1  0  0  0  0
 15 17  1  0  0  0  0
 16 18  1  0  0  0  0
 16 29  1  0  0  0  0
 17 30  1  0  0  0  0
 17 18  2  0  0  0  0
 18 31  1  0  0  0  0
M  END
