decoy-560
 OpenBabel06062114513D

 96 95  0  0  0  0  0  0  0  0999 V2000
   -4.2520    5.6120    0.2140 C   0  0  0  0  0  0  0  0  0  0  0  0
   -4.9220    4.4250    0.1780 C   0  0  0  0  0  0  0  0  0  0  0  0
   -2.9180    5.6090   -0.0160 C   0  0  0  0  0  0  0  0  0  0  0  0
   -5.0220    6.8340    0.4530 C   0  0  0  0  0  0  0  0  0  0  0  0
   -5.4430    3.8460    1.2750 C   0  0  0  0  0  0  0  0  0  0  0  0
   -2.1030    6.7030   -0.0250 C   0  0  0  0  0  0  0  0  0  0  0  0
   -6.1010    2.6510    1.2470 C   0  0  0  0  0  0  0  0  0  0  0  0
   -0.9020    6.7230   -0.6330 C   0  0  0  0  0  0  0  0  0  0  0  0
   -6.9780    2.1900    2.1710 C   0  0  0  0  0  0  0  0  0  0  0  0
   -0.0860    7.8150   -0.6260 C   0  0  0  0  0  0  0  0  0  0  0  0
   -7.6030    0.8690    1.9960 C   0  0  0  0  0  0  0  0  0  0  0  0
   -7.3410    2.9740    3.3550 C   0  0  0  0  0  0  0  0  0  0  0  0
    1.0670    7.7570    0.0810 C   0  0  0  0  0  0  0  0  0  0  0  0
   -0.4790    8.9770   -1.4260 C   0  0  0  0  0  0  0  0  0  0  0  0
   -7.0040   -0.2010    2.9550 C   0  0  0  0  0  0  0  0  0  0  0  0
    1.9950    8.7520    0.1890 C   0  0  0  0  0  0  0  0  0  0  0  0
   -7.5740   -1.5280    2.7570 C   0  0  0  0  0  0  0  0  0  0  0  0
    3.2760    8.5340    0.5430 C   0  0  0  0  0  0  0  0  0  0  0  0
   -7.3170   -2.3950    1.7490 C   0  0  0  0  0  0  0  0  0  0  0  0
    4.2000    9.5320    0.6670 C   0  0  0  0  0  0  0  0  0  0  0  0
   -8.0470   -3.6620    1.7270 C   0  0  0  0  0  0  0  0  0  0  0  0
   -6.3470   -2.1620    0.6790 C   0  0  0  0  0  0  0  0  0  0  0  0
    5.5450    9.3840    0.6190 C   0  0  0  0  0  0  0  0  0  0  0  0
    6.3260   10.4930    0.7520 C   0  0  0  0  0  0  0  0  0  0  0  0
    6.2020    8.0980    0.3790 C   0  0  0  0  0  0  0  0  0  0  0  0
    7.1140   10.7060    1.8210 C   0  0  0  0  0  0  0  0  0  0  0  0
    7.8700   11.8240    1.9650 C   0  0  0  0  0  0  0  0  0  0  0  0
    9.1290   11.8720    2.4600 C   0  0  0  0  0  0  0  0  0  0  0  0
    9.7220   13.0890    2.5970 C   0  0  0  0  0  0  0  0  0  0  0  0
    9.9450   10.7100    2.8140 C   0  0  0  0  0  0  0  0  0  0  0  0
    9.7460   13.7580    3.7630 C   0  0  0  0  0  0  0  0  0  0  0  0
   10.3150   14.9830    3.8960 C   0  0  0  0  0  0  0  0  0  0  0  0
   11.0480   15.4250    4.9450 C   0  0  0  0  0  0  0  0  0  0  0  0
   11.4990   16.8260    4.9580 C   0  0  0  0  0  0  0  0  0  0  0  0
   11.4570   14.5800    6.0700 C   0  0  0  0  0  0  0  0  0  0  0  0
   10.3400   17.8370    5.1950 C   0  0  0  0  0  0  0  0  0  0  0  0
   10.8250   19.2130    5.2330 C   0  0  0  0  0  0  0  0  0  0  0  0
   10.5660   20.2080    4.3520 C   0  0  0  0  0  0  0  0  0  0  0  0
    9.7260   20.0090    3.1730 C   0  0  0  0  0  0  0  0  0  0  0  0
   11.1430   21.5370    4.5500 C   0  0  0  0  0  0  0  0  0  0  0  0
   -5.0040    3.9740   -0.7070 H   0  0  0  0  0  0  0  0  0  0  0  0
   -2.4790    4.7290   -0.1940 H   0  0  0  0  0  0  0  0  0  0  0  0
   -6.0940    6.6460    0.5560 H   0  0  0  0  0  0  0  0  0  0  0  0
   -4.6800    7.3140    1.3720 H   0  0  0  0  0  0  0  0  0  0  0  0
   -4.8890    7.5270   -0.3810 H   0  0  0  0  0  0  0  0  0  0  0  0
   -5.3310    4.3100    2.1480 H   0  0  0  0  0  0  0  0  0  0  0  0
   -2.4010    7.5260    0.4500 H   0  0  0  0  0  0  0  0  0  0  0  0
   -5.9040    2.0610    0.4690 H   0  0  0  0  0  0  0  0  0  0  0  0
   -0.5710    5.9080   -1.1010 H   0  0  0  0  0  0  0  0  0  0  0  0
   -8.6790    0.9550    2.1780 H   0  0  0  0  0  0  0  0  0  0  0  0
   -7.5060    0.5190    0.9650 H   0  0  0  0  0  0  0  0  0  0  0  0
   -7.7450    3.9420    3.0530 H   0  0  0  0  0  0  0  0  0  0  0  0
   -8.0970    2.4810    3.9700 H   0  0  0  0  0  0  0  0  0  0  0  0
   -6.4600    3.1330    3.9810 H   0  0  0  0  0  0  0  0  0  0  0  0
    1.2640    6.9130    0.5780 H   0  0  0  0  0  0  0  0  0  0  0  0
   -1.4100    8.8170   -1.9770 H   0  0  0  0  0  0  0  0  0  0  0  0
   -0.6230    9.8430   -0.7770 H   0  0  0  0  0  0  0  0  0  0  0  0
    0.3000    9.2060   -2.1570 H   0  0  0  0  0  0  0  0  0  0  0  0
   -5.9170   -0.2440    2.8560 H   0  0  0  0  0  0  0  0  0  0  0  0
   -7.2090    0.1090    3.9850 H   0  0  0  0  0  0  0  0  0  0  0  0
    1.7110    9.6870    0.0010 H   0  0  0  0  0  0  0  0  0  0  0  0
   -8.2270   -1.8160    3.4520 H   0  0  0  0  0  0  0  0  0  0  0  0
    3.5610    7.5990    0.7270 H   0  0  0  0  0  0  0  0  0  0  0  0
    3.8380   10.4520    0.8110 H   0  0  0  0  0  0  0  0  0  0  0  0
   -7.7720   -4.2900    0.8760 H   0  0  0  0  0  0  0  0  0  0  0  0
   -7.8400   -4.2290    2.6380 H   0  0  0  0  0  0  0  0  0  0  0  0
   -9.1210   -3.4730    1.6660 H   0  0  0  0  0  0  0  0  0  0  0  0
   -5.8060   -1.2220    0.7620 H   0  0  0  0  0  0  0  0  0  0  0  0
   -5.6050   -2.9630    0.6800 H   0  0  0  0  0  0  0  0  0  0  0  0
   -6.8610   -2.1650   -0.2840 H   0  0  0  0  0  0  0  0  0  0  0  0
    6.2880   11.1720    0.0240 H   0  0  0  0  0  0  0  0  0  0  0  0
    5.8460    7.6680   -0.5600 H   0  0  0  0  0  0  0  0  0  0  0  0
    7.2900    8.1840    0.3100 H   0  0  0  0  0  0  0  0  0  0  0  0
    5.9760    7.4080    1.1940 H   0  0  0  0  0  0  0  0  0  0  0  0
    7.1240   10.0340    2.5560 H   0  0  0  0  0  0  0  0  0  0  0  0
    7.4320   12.6810    1.6990 H   0  0  0  0  0  0  0  0  0  0  0  0
   10.1520   13.4830    1.7890 H   0  0  0  0  0  0  0  0  0  0  0  0
    9.4620    9.7570    2.6010 H   0  0  0  0  0  0  0  0  0  0  0  0
   10.8820   10.7270    2.2520 H   0  0  0  0  0  0  0  0  0  0  0  0
   10.1800   10.7330    3.8810 H   0  0  0  0  0  0  0  0  0  0  0  0
    9.2970   13.3590    4.5570 H   0  0  0  0  0  0  0  0  0  0  0  0
   10.1520   15.6180    3.1450 H   0  0  0  0  0  0  0  0  0  0  0  0
   12.2480   16.9810    5.7420 H   0  0  0  0  0  0  0  0  0  0  0  0
   11.9940   17.0530    4.0090 H   0  0  0  0  0  0  0  0  0  0  0  0
   11.1410   13.5400    5.9860 H   0  0  0  0  0  0  0  0  0  0  0  0
   12.5460   14.5770    6.1490 H   0  0  0  0  0  0  0  0  0  0  0  0
   11.0420   14.9810    6.9960 H   0  0  0  0  0  0  0  0  0  0  0  0
    9.5760   17.6940    4.4300 H   0  0  0  0  0  0  0  0  0  0  0  0
    9.8680   17.6210    6.1580 H   0  0  0  0  0  0  0  0  0  0  0  0
   11.4230   19.4200    6.0010 H   0  0  0  0  0  0  0  0  0  0  0  0
    9.6510   20.9090    2.5580 H   0  0  0  0  0  0  0  0  0  0  0  0
   10.1420   19.2170    2.5460 H   0  0  0  0  0  0  0  0  0  0  0  0
    8.7150   19.7340    3.4760 H   0  0  0  0  0  0  0  0  0  0  0  0
   11.7540   21.6190    5.4520 H   0  0  0  0  0  0  0  0  0  0  0  0
   11.7750   21.7930    3.6970 H   0  0  0  0  0  0  0  0  0  0  0  0
   10.3420   22.2760    4.6260 H   0  0  0  0  0  0  0  0  0  0  0  0
  1  4  1  0  0  0  0
  1  2  1  0  0  0  0
  1  3  2  0  0  0  0
  2  5  2  0  0  0  0
  2 41  1  0  0  0  0
  3  6  1  0  0  0  0
  3 42  1  0  0  0  0
  4 43  1  0  0  0  0
  4 44  1  0  0  0  0
  4 45  1  0  0  0  0
  5 46  1  0  0  0  0
  5  7  1  0  0  0  0
  6 47  1  0  0  0  0
  6  8  2  0  0  0  0
  7  9  2  0  0  0  0
  7 48  1  0  0  0  0
  8 10  1  0  0  0  0
  8 49  1  0  0  0  0
  9 12  1  0  0  0  0
  9 11  1  0  0  0  0
 10 13  2  0  0  0  0
 10 14  1  0  0  0  0
 11 50  1  0  0  0  0
 11 15  1  0  0  0  0
 11 51  1  0  0  0  0
 12 53  1  0  0  0  0
 12 54  1  0  0  0  0
 12 52  1  0  0  0  0
 13 16  1  0  0  0  0
 13 55  1  0  0  0  0
 14 57  1  0  0  0  0
 14 56  1  0  0  0  0
 14 58  1  0  0  0  0
 15 60  1  0  0  0  0
 15 17  1  0  0  0  0
 15 59  1  0  0  0  0
 16 18  2  0  0  0  0
 16 61  1  0  0  0  0
 17 62  1  0  0  0  0
 17 19  2  0  0  0  0
 18 20  1  0  0  0  0
 18 63  1  0  0  0  0
 19 21  1  0  0  0  0
 19 22  1  0  0  0  0
 20 64  1  0  0  0  0
 20 23  2  0  0  0  0
 21 66  1  0  0  0  0
 21 65  1  0  0  0  0
 21 67  1  0  0  0  0
 22 69  1  0  0  0  0
 22 68  1  0  0  0  0
 22 70  1  0  0  0  0
 23 24  1  0  0  0  0
 23 25  1  0  0  0  0
 24 26  2  0  0  0  0
 24 71  1  0  0  0  0
 25 74  1  0  0  0  0
 25 72  1  0  0  0  0
 25 73  1  0  0  0  0
 26 27  1  0  0  0  0
 26 75  1  0  0  0  0
 27 28  2  0  0  0  0
 27 76  1  0  0  0  0
 28 29  1  0  0  0  0
 28 30  1  0  0  0  0
 29 31  2  0  0  0  0
 29 77  1  0  0  0  0
 30 80  1  0  0  0  0
 30 78  1  0  0  0  0
 30 79  1  0  0  0  0
 31 32  1  0  0  0  0
 31 81  1  0  0  0  0
 32 33  2  0  0  0  0
 32 82  1  0  0  0  0
 33 34  1  0  0  0  0
 33 35  1  0  0  0  0
 34 36  1  0  0  0  0
 34 83  1  0  0  0  0
 34 84  1  0  0  0  0
 35 86  1  0  0  0  0
 35 87  1  0  0  0  0
 35 85  1  0  0  0  0
 36 37  1  0  0  0  0
 36 89  1  0  0  0  0
 36 88  1  0  0  0  0
 37 90  1  0  0  0  0
 37 38  2  0  0  0  0
 38 40  1  0  0  0  0
 38 39  1  0  0  0  0
 39 93  1  0  0  0  0
 39 91  1  0  0  0  0
 39 92  1  0  0  0  0
 40 96  1  0  0  0  0
 40 94  1  0  0  0  0
 40 95  1  0  0  0  0
M  END
