decoy-650
 OpenBabel06062114513D

 46 48  0  0  0  0  0  0  0  0999 V2000
   -0.2780   -0.5640   -1.7460 C   0  0  0  0  0  0  0  0  0  0  0  0
   -0.1950   -2.0820   -1.6270 C   0  0  0  0  0  0  0  0  0  0  0  0
    0.7650    0.1060   -2.6110 C   0  0  0  0  0  0  0  0  0  0  0  0
   -1.5880   -0.0030   -2.2650 C   0  0  0  0  0  0  0  0  0  0  0  0
   -0.1180   -0.1790   -0.3710 O   0  0  0  0  0  0  0  0  0  0  0  0
    1.0270   -2.8400   -1.6340 C   0  0  0  0  0  0  0  0  0  0  0  0
   -1.4000   -2.8100   -1.4140 C   0  0  0  0  0  0  0  0  0  0  0  0
    1.3970    1.3100   -2.2070 C   0  0  0  0  0  0  0  0  0  0  0  0
    1.1060   -0.4110   -3.8880 C   0  0  0  0  0  0  0  0  0  0  0  0
   -2.2700    1.0550   -1.6090 C   0  0  0  0  0  0  0  0  0  0  0  0
   -2.1640   -0.4930   -3.4670 C   0  0  0  0  0  0  0  0  0  0  0  0
    0.9760   -4.2570   -1.5900 C   0  0  0  0  0  0  0  0  0  0  0  0
    2.3260   -2.2680   -1.6380 C   0  0  0  0  0  0  0  0  0  0  0  0
   -1.4310   -4.2110   -1.3470 C   0  0  0  0  0  0  0  0  0  0  0  0
    2.3500    1.9450   -3.0240 C   0  0  0  0  0  0  0  0  0  0  0  0
    2.0600    0.2210   -4.7050 C   0  0  0  0  0  0  0  0  0  0  0  0
   -3.4710    1.5830   -2.1160 C   0  0  0  0  0  0  0  0  0  0  0  0
   -3.3660    0.0320   -3.9750 C   0  0  0  0  0  0  0  0  0  0  0  0
   -0.2420   -4.9380   -1.4590 C   0  0  0  0  0  0  0  0  0  0  0  0
    2.6590   -1.2960   -0.7610 O   0  0  0  0  0  0  0  0  0  0  0  0
    3.3450   -2.8380   -2.3200 O   0  0  0  0  0  0  0  0  0  0  0  0
    2.6950    1.4070   -4.2770 C   0  0  0  0  0  0  0  0  0  0  0  0
   -4.0320    1.0730   -3.3060 C   0  0  0  0  0  0  0  0  0  0  0  0
    3.6310    2.0800   -5.0090 O   0  0  0  0  0  0  0  0  0  0  0  0
   -5.1930    1.5300   -3.8620 O   0  0  0  0  0  0  0  0  0  0  0  0
    4.2590    1.6960   -6.5360 S   0  0  0  0  0  0  0  0  0  0  0  0
   -6.2210    2.7590   -3.3090 S   0  0  0  0  0  0  0  0  0  0  0  0
    5.3880    2.8940   -6.9160 O   0  0  0  0  0  0  0  0  0  0  0  0
    5.0840    0.2210   -6.5010 O   0  0  0  0  0  0  0  0  0  0  0  0
    3.0550    1.7440   -7.7210 O   0  0  0  0  0  0  0  0  0  0  0  0
   -5.4360    4.2560   -3.3040 O   0  0  0  0  0  0  0  0  0  0  0  0
   -7.4950    2.8650   -4.4140 O   0  0  0  0  0  0  0  0  0  0  0  0
   -6.8900    2.3660   -1.8080 O   0  0  0  0  0  0  0  0  0  0  0  0
    0.7630   -0.5010   -0.0960 H   0  0  0  0  0  0  0  0  0  0  0  0
   -2.2930   -2.3240   -1.3030 H   0  0  0  0  0  0  0  0  0  0  0  0
    1.1660    1.7450   -1.3120 H   0  0  0  0  0  0  0  0  0  0  0  0
    0.6750   -1.2730   -4.2280 H   0  0  0  0  0  0  0  0  0  0  0  0
   -1.8930    1.4690   -0.7540 H   0  0  0  0  0  0  0  0  0  0  0  0
   -1.7180   -1.2550   -3.9790 H   0  0  0  0  0  0  0  0  0  0  0  0
    1.8330   -4.8180   -1.6110 H   0  0  0  0  0  0  0  0  0  0  0  0
   -2.3190   -4.7010   -1.2140 H   0  0  0  0  0  0  0  0  0  0  0  0
    2.7920    2.8090   -2.7010 H   0  0  0  0  0  0  0  0  0  0  0  0
    2.2870   -0.1910   -5.6110 H   0  0  0  0  0  0  0  0  0  0  0  0
   -3.9290    2.3440   -1.6120 H   0  0  0  0  0  0  0  0  0  0  0  0
   -3.7550   -0.3510   -4.8400 H   0  0  0  0  0  0  0  0  0  0  0  0
   -0.2590   -5.9590   -1.4100 H   0  0  0  0  0  0  0  0  0  0  0  0
  1  2  1  0  0  0  0
  1  5  1  0  0  0  0
  1  3  1  0  0  0  0
  1  4  1  0  0  0  0
  2  7  2  0  0  0  0
  2  6  1  0  0  0  0
  3  8  2  0  0  0  0
  3  9  1  0  0  0  0
  4 10  2  0  0  0  0
  4 11  1  0  0  0  0
  5 34  1  0  0  0  0
  6 12  2  0  0  0  0
  6 13  1  0  0  0  0
  7 14  1  0  0  0  0
  7 35  1  0  0  0  0
  8 36  1  0  0  0  0
  8 15  1  0  0  0  0
  9 16  2  0  0  0  0
  9 37  1  0  0  0  0
 10 38  1  0  0  0  0
 10 17  1  0  0  0  0
 11 18  2  0  0  0  0
 11 39  1  0  0  0  0
 12 19  1  0  0  0  0
 12 40  1  0  0  0  0
 13 20  1  0  0  0  0
 13 21  2  0  0  0  0
 14 41  1  0  0  0  0
 14 19  2  0  0  0  0
 15 42  1  0  0  0  0
 15 22  2  0  0  0  0
 16 22  1  0  0  0  0
 16 43  1  0  0  0  0
 17 44  1  0  0  0  0
 17 23  2  0  0  0  0
 18 23  1  0  0  0  0
 18 45  1  0  0  0  0
 19 46  1  0  0  0  0
 22 24  1  0  0  0  0
 23 25  1  0  0  0  0
 24 26  1  0  0  0  0
 25 27  1  0  0  0  0
 26 29  1  0  0  0  0
 26 28  2  0  0  0  0
 26 30  2  0  0  0  0
 27 31  2  0  0  0  0
 27 33  1  0  0  0  0
 27 32  2  0  0  0  0
M  END
