decoy-360
 OpenBabel06062114513D

 55 54  0  0  0  0  0  0  0  0999 V2000
    0.1520    1.6600   -0.0020 C   0  0  0  0  0  0  0  0  0  0  0  0
    0.1230    0.1080   -0.0040 C   0  0  0  0  0  0  0  0  0  0  0  0
    1.5950    2.2300   -0.0090 C   0  0  0  0  0  0  0  0  0  0  0  0
   -1.3210   -0.4610    0.0030 C   0  0  0  0  0  0  0  0  0  0  0  0
    1.6150    3.7830   -0.0070 C   0  0  0  0  0  0  0  0  0  0  0  0
   -1.3500   -2.0130    0.0010 C   0  0  0  0  0  0  0  0  0  0  0  0
    3.1450    4.4350   -0.0170 P   0  0  0  0  0  0  0  0  0  0  0  0
   -2.7940   -2.5830    0.0080 C   0  0  0  0  0  0  0  0  0  0  0  0
    3.9160    3.9990   -1.2790 O   0  0  0  0  0  0  0  0  0  0  0  0
    3.0430    5.9730   -0.0210 O   0  0  0  0  0  0  0  0  0  0  0  0
    3.8850    4.0360    1.1530 O   0  0  0  0  0  0  0  0  0  0  0  0
   -2.8230   -4.1340    0.0060 C   0  0  0  0  0  0  0  0  0  0  0  0
   -4.2660   -4.7040    0.0130 C   0  0  0  0  0  0  0  0  0  0  0  0
   -4.2960   -6.2550    0.0110 C   0  0  0  0  0  0  0  0  0  0  0  0
   -5.7390   -6.8250    0.0180 C   0  0  0  0  0  0  0  0  0  0  0  0
   -5.7690   -8.3760    0.0160 C   0  0  0  0  0  0  0  0  0  0  0  0
   -7.2120   -8.9460    0.0230 C   0  0  0  0  0  0  0  0  0  0  0  0
   -7.2410  -10.4980    0.0210 C   0  0  0  0  0  0  0  0  0  0  0  0
   -8.6850  -11.0660    0.0280 C   0  0  0  0  0  0  0  0  0  0  0  0
   -8.7170  -12.6110    0.0260 C   0  0  0  0  0  0  0  0  0  0  0  0
   -0.3800    2.0270   -0.8840 H   0  0  0  0  0  0  0  0  0  0  0  0
   -0.3700    2.0240    0.8870 H   0  0  0  0  0  0  0  0  0  0  0  0
    0.6440   -0.2560   -0.8940 H   0  0  0  0  0  0  0  0  0  0  0  0
    0.6550   -0.2590    0.8780 H   0  0  0  0  0  0  0  0  0  0  0  0
    2.1240    1.8580    0.8730 H   0  0  0  0  0  0  0  0  0  0  0  0
    2.1140    1.8610   -0.9000 H   0  0  0  0  0  0  0  0  0  0  0  0
   -1.8420   -0.0970    0.8930 H   0  0  0  0  0  0  0  0  0  0  0  0
   -1.8530   -0.0940   -0.8790 H   0  0  0  0  0  0  0  0  0  0  0  0
    1.0860    4.1530   -0.8880 H   0  0  0  0  0  0  0  0  0  0  0  0
    1.0960    4.1510    0.8810 H   0  0  0  0  0  0  0  0  0  0  0  0
   -0.8280   -2.3770   -0.8890 H   0  0  0  0  0  0  0  0  0  0  0  0
   -0.8180   -2.3800    0.8830 H   0  0  0  0  0  0  0  0  0  0  0  0
   -3.3150   -2.2180    0.8980 H   0  0  0  0  0  0  0  0  0  0  0  0
   -3.3260   -2.2150   -0.8740 H   0  0  0  0  0  0  0  0  0  0  0  0
    4.7880    4.4410   -1.2040 H   0  0  0  0  0  0  0  0  0  0  0  0
    3.9730    6.2850   -0.0310 H   0  0  0  0  0  0  0  0  0  0  0  0
   -2.3010   -4.4990   -0.8840 H   0  0  0  0  0  0  0  0  0  0  0  0
   -2.2910   -4.5010    0.8880 H   0  0  0  0  0  0  0  0  0  0  0  0
   -4.7880   -4.3390    0.9030 H   0  0  0  0  0  0  0  0  0  0  0  0
   -4.7980   -4.3360   -0.8690 H   0  0  0  0  0  0  0  0  0  0  0  0
   -3.7740   -6.6200   -0.8790 H   0  0  0  0  0  0  0  0  0  0  0  0
   -3.7640   -6.6230    0.8930 H   0  0  0  0  0  0  0  0  0  0  0  0
   -6.2610   -6.4610    0.9080 H   0  0  0  0  0  0  0  0  0  0  0  0
   -6.2710   -6.4580   -0.8640 H   0  0  0  0  0  0  0  0  0  0  0  0
   -5.2470   -8.7410   -0.8740 H   0  0  0  0  0  0  0  0  0  0  0  0
   -5.2360   -8.7440    0.8980 H   0  0  0  0  0  0  0  0  0  0  0  0
   -7.7340   -8.5820    0.9130 H   0  0  0  0  0  0  0  0  0  0  0  0
   -7.7440   -8.5790   -0.8590 H   0  0  0  0  0  0  0  0  0  0  0  0
   -6.7200  -10.8620   -0.8690 H   0  0  0  0  0  0  0  0  0  0  0  0
   -6.7100  -10.8650    0.9030 H   0  0  0  0  0  0  0  0  0  0  0  0
   -9.2110  -10.7080    0.9170 H   0  0  0  0  0  0  0  0  0  0  0  0
   -9.2210  -10.7050   -0.8530 H   0  0  0  0  0  0  0  0  0  0  0  0
   -9.7520  -12.9580    0.0310 H   0  0  0  0  0  0  0  0  0  0  0  0
   -8.2240  -13.0000   -0.8660 H   0  0  0  0  0  0  0  0  0  0  0  0
   -8.2130  -13.0030    0.9110 H   0  0  0  0  0  0  0  0  0  0  0  0
  1 22  1  0  0  0  0
  1  2  1  0  0  0  0
  1  3  1  0  0  0  0
  1 21  1  0  0  0  0
  2  4  1  0  0  0  0
  2 24  1  0  0  0  0
  2 23  1  0  0  0  0
  3  5  1  0  0  0  0
  3 25  1  0  0  0  0
  3 26  1  0  0  0  0
  4 27  1  0  0  0  0
  4  6  1  0  0  0  0
  4 28  1  0  0  0  0
  5 30  1  0  0  0  0
  5  7  1  0  0  0  0
  5 29  1  0  0  0  0
  6  8  1  0  0  0  0
  6 32  1  0  0  0  0
  6 31  1  0  0  0  0
  7 11  2  0  0  0  0
  7  9  1  0  0  0  0
  7 10  1  0  0  0  0
  8 33  1  0  0  0  0
  8 12  1  0  0  0  0
  8 34  1  0  0  0  0
  9 35  1  0  0  0  0
 10 36  1  0  0  0  0
 12 13  1  0  0  0  0
 12 38  1  0  0  0  0
 12 37  1  0  0  0  0
 13 39  1  0  0  0  0
 13 14  1  0  0  0  0
 13 40  1  0  0  0  0
 14 15  1  0  0  0  0
 14 42  1  0  0  0  0
 14 41  1  0  0  0  0
 15 43  1  0  0  0  0
 15 16  1  0  0  0  0
 15 44  1  0  0  0  0
 16 17  1  0  0  0  0
 16 46  1  0  0  0  0
 16 45  1  0  0  0  0
 17 47  1  0  0  0  0
 17 18  1  0  0  0  0
 17 48  1  0  0  0  0
 18 19  1  0  0  0  0
 18 50  1  0  0  0  0
 18 49  1  0  0  0  0
 19 51  1  0  0  0  0
 19 20  1  0  0  0  0
 19 52  1  0  0  0  0
 20 53  1  0  0  0  0
 20 55  1  0  0  0  0
 20 54  1  0  0  0  0
M  END
