decoy-613
 OpenBabel06062114513D

 35 36  0  0  0  0  0  0  0  0999 V2000
    0.0330    0.6300   -0.2110 S   0  0  0  0  0  0  0  0  0  0  0  0
   -0.2860    2.1450    0.5810 C   0  0  0  0  0  0  0  0  0  0  0  0
    1.5120    0.6880   -1.0310 O   0  0  0  0  0  0  0  0  0  0  0  0
    0.2080   -0.5600    0.9770 O   0  0  0  0  0  0  0  0  0  0  0  0
   -1.1930    0.1020   -1.2480 O   0  0  0  0  0  0  0  0  0  0  0  0
   -1.3840    2.9400    0.1950 C   0  0  0  0  0  0  0  0  0  0  0  0
    0.5940    2.6150    1.5760 C   0  0  0  0  0  0  0  0  0  0  0  0
    1.7110    1.6360   -2.4180 S   0  0  0  0  0  0  0  0  0  0  0  0
   -1.5940    4.1970    0.7930 C   0  0  0  0  0  0  0  0  0  0  0  0
    0.3820    3.8710    2.1740 C   0  0  0  0  0  0  0  0  0  0  0  0
    1.4400    3.3170   -2.0580 C   0  0  0  0  0  0  0  0  0  0  0  0
    3.3310    1.4660   -2.8670 O   0  0  0  0  0  0  0  0  0  0  0  0
    0.7760    1.0280   -3.6880 O   0  0  0  0  0  0  0  0  0  0  0  0
   -0.7110    4.6780    1.7860 C   0  0  0  0  0  0  0  0  0  0  0  0
    2.2710    3.9820   -1.1350 C   0  0  0  0  0  0  0  0  0  0  0  0
    0.3540    4.0070   -2.6340 C   0  0  0  0  0  0  0  0  0  0  0  0
   -0.9030    6.0040    2.4170 C   0  0  0  0  0  0  0  0  0  0  0  0
    2.0150    5.3200   -0.7840 C   0  0  0  0  0  0  0  0  0  0  0  0
    0.1000    5.3460   -2.2840 C   0  0  0  0  0  0  0  0  0  0  0  0
    0.9230    6.0160   -1.3520 C   0  0  0  0  0  0  0  0  0  0  0  0
    0.6240    7.4190   -0.9850 C   0  0  0  0  0  0  0  0  0  0  0  0
   -2.0250    2.6200   -0.5340 H   0  0  0  0  0  0  0  0  0  0  0  0
    1.4020    2.0550    1.8590 H   0  0  0  0  0  0  0  0  0  0  0  0
   -2.3910    4.7620    0.4890 H   0  0  0  0  0  0  0  0  0  0  0  0
    1.0370    4.1980    2.8890 H   0  0  0  0  0  0  0  0  0  0  0  0
    3.0550    3.4910   -0.6980 H   0  0  0  0  0  0  0  0  0  0  0  0
   -0.2670    3.5370   -3.2950 H   0  0  0  0  0  0  0  0  0  0  0  0
   -1.7770    6.5240    2.0210 H   0  0  0  0  0  0  0  0  0  0  0  0
   -1.0370    5.8830    3.4940 H   0  0  0  0  0  0  0  0  0  0  0  0
   -0.0250    6.6270    2.2380 H   0  0  0  0  0  0  0  0  0  0  0  0
    2.6260    5.7790   -0.1030 H   0  0  0  0  0  0  0  0  0  0  0  0
   -0.6990    5.8260   -2.7060 H   0  0  0  0  0  0  0  0  0  0  0  0
    1.3310    7.8110   -0.2510 H   0  0  0  0  0  0  0  0  0  0  0  0
    0.6710    8.0490   -1.8750 H   0  0  0  0  0  0  0  0  0  0  0  0
   -0.3790    7.4820   -0.5600 H   0  0  0  0  0  0  0  0  0  0  0  0
  1  2  1  0  0  0  0
  1  4  2  0  0  0  0
  1  3  1  0  0  0  0
  1  5  2  0  0  0  0
  2  7  2  0  0  0  0
  2  6  1  0  0  0  0
  3  8  1  0  0  0  0
  6  9  2  0  0  0  0
  6 22  1  0  0  0  0
  7 23  1  0  0  0  0
  7 10  1  0  0  0  0
  8 11  1  0  0  0  0
  8 12  2  0  0  0  0
  8 13  2  0  0  0  0
  9 14  1  0  0  0  0
  9 24  1  0  0  0  0
 10 25  1  0  0  0  0
 10 14  2  0  0  0  0
 11 15  2  0  0  0  0
 11 16  1  0  0  0  0
 14 17  1  0  0  0  0
 15 18  1  0  0  0  0
 15 26  1  0  0  0  0
 16 19  2  0  0  0  0
 16 27  1  0  0  0  0
 17 29  1  0  0  0  0
 17 28  1  0  0  0  0
 17 30  1  0  0  0  0
 18 31  1  0  0  0  0
 18 20  2  0  0  0  0
 19 20  1  0  0  0  0
 19 32  1  0  0  0  0
 20 21  1  0  0  0  0
 21 35  1  0  0  0  0
 21 33  1  0  0  0  0
 21 34  1  0  0  0  0
M  END
