decoy-775
 OpenBabel06062114513D

 53 52  0  0  0  0  0  0  0  0999 V2000
    0.0600    1.6300    0.0200 C   0  0  0  0  0  0  0  0  0  0  0  0
    0.0340    0.0800   -0.0440 C   0  0  0  0  0  0  0  0  0  0  0  0
    1.4990    2.2050   -0.0620 C   0  0  0  0  0  0  0  0  0  0  0  0
   -1.4050   -0.4970    0.0300 C   0  0  0  0  0  0  0  0  0  0  0  0
    1.5230    3.7510    0.0120 C   0  0  0  0  0  0  0  0  0  0  0  0
   -1.4300   -2.0470   -0.0260 C   0  0  0  0  0  0  0  0  0  0  0  0
    3.2040    4.4030   -0.0930 S   0  0  0  0  0  0  0  0  0  0  0  0
   -2.8690   -2.6240    0.0340 C   0  0  0  0  0  0  0  0  0  0  0  0
    3.1550    6.0900    0.0030 O   0  0  0  0  0  0  0  0  0  0  0  0
    4.1440    3.8120    1.1820 O   0  0  0  0  0  0  0  0  0  0  0  0
    3.9110    3.9630   -1.5640 O   0  0  0  0  0  0  0  0  0  0  0  0
   -2.8930   -4.1750   -0.0120 C   0  0  0  0  0  0  0  0  0  0  0  0
   -4.3330   -4.7520    0.0370 C   0  0  0  0  0  0  0  0  0  0  0  0
   -4.3550   -6.3030   -0.0010 C   0  0  0  0  0  0  0  0  0  0  0  0
   -5.7950   -6.8800    0.0380 C   0  0  0  0  0  0  0  0  0  0  0  0
   -5.8180   -8.4310    0.0070 C   0  0  0  0  0  0  0  0  0  0  0  0
   -7.2580   -9.0080    0.0350 C   0  0  0  0  0  0  0  0  0  0  0  0
   -7.2790  -10.5600    0.0110 C   0  0  0  0  0  0  0  0  0  0  0  0
   -8.7200  -11.1360    0.0330 C   0  0  0  0  0  0  0  0  0  0  0  0
   -8.7450  -12.6800    0.0100 C   0  0  0  0  0  0  0  0  0  0  0  0
   -0.5300    2.0310   -0.8090 H   0  0  0  0  0  0  0  0  0  0  0  0
   -0.4010    1.9550    0.9570 H   0  0  0  0  0  0  0  0  0  0  0  0
    0.5000   -0.2460   -0.9780 H   0  0  0  0  0  0  0  0  0  0  0  0
    0.6210   -0.3200    0.7880 H   0  0  0  0  0  0  0  0  0  0  0  0
    2.0920    1.8010    0.7630 H   0  0  0  0  0  0  0  0  0  0  0  0
    1.9570    1.8870   -1.0020 H   0  0  0  0  0  0  0  0  0  0  0  0
   -1.8730   -0.1670    0.9620 H   0  0  0  0  0  0  0  0  0  0  0  0
   -1.9900   -0.1010   -0.8050 H   0  0  0  0  0  0  0  0  0  0  0  0
    0.9430    4.1730   -0.8110 H   0  0  0  0  0  0  0  0  0  0  0  0
    1.0860    4.0860    0.9540 H   0  0  0  0  0  0  0  0  0  0  0  0
   -0.9530   -2.3780   -0.9530 H   0  0  0  0  0  0  0  0  0  0  0  0
   -0.8520   -2.4420    0.8150 H   0  0  0  0  0  0  0  0  0  0  0  0
   -3.3490   -2.2880    0.9580 H   0  0  0  0  0  0  0  0  0  0  0  0
   -3.4440   -2.2340   -0.8100 H   0  0  0  0  0  0  0  0  0  0  0  0
   -2.4060   -4.5110   -0.9320 H   0  0  0  0  0  0  0  0  0  0  0  0
   -2.3240   -4.5640    0.8370 H   0  0  0  0  0  0  0  0  0  0  0  0
   -4.8210   -4.4120    0.9550 H   0  0  0  0  0  0  0  0  0  0  0  0
   -4.9000   -4.3660   -0.8140 H   0  0  0  0  0  0  0  0  0  0  0  0
   -3.8600   -6.6440   -0.9140 H   0  0  0  0  0  0  0  0  0  0  0  0
   -3.7940   -6.6880    0.8550 H   0  0  0  0  0  0  0  0  0  0  0  0
   -6.2930   -6.5350    0.9490 H   0  0  0  0  0  0  0  0  0  0  0  0
   -6.3540   -6.4980   -0.8220 H   0  0  0  0  0  0  0  0  0  0  0  0
   -5.3140   -8.7760   -0.9010 H   0  0  0  0  0  0  0  0  0  0  0  0
   -5.2640   -8.8120    0.8700 H   0  0  0  0  0  0  0  0  0  0  0  0
   -7.7640   -8.6590    0.9400 H   0  0  0  0  0  0  0  0  0  0  0  0
   -7.8090   -8.6310   -0.8310 H   0  0  0  0  0  0  0  0  0  0  0  0
   -6.7700  -10.9100   -0.8920 H   0  0  0  0  0  0  0  0  0  0  0  0
   -6.7320  -10.9370    0.8790 H   0  0  0  0  0  0  0  0  0  0  0  0
   -9.2340  -10.7920    0.9350 H   0  0  0  0  0  0  0  0  0  0  0  0
   -9.2720  -10.7660   -0.8350 H   0  0  0  0  0  0  0  0  0  0  0  0
   -9.7780  -13.0330    0.0270 H   0  0  0  0  0  0  0  0  0  0  0  0
   -8.2630  -13.0550   -0.8950 H   0  0  0  0  0  0  0  0  0  0  0  0
   -8.2250  -13.0820    0.8820 H   0  0  0  0  0  0  0  0  0  0  0  0
  1 22  1  0  0  0  0
  1  2  1  0  0  0  0
  1  3  1  0  0  0  0
  1 21  1  0  0  0  0
  2  4  1  0  0  0  0
  2 24  1  0  0  0  0
  2 23  1  0  0  0  0
  3  5  1  0  0  0  0
  3 25  1  0  0  0  0
  3 26  1  0  0  0  0
  4 27  1  0  0  0  0
  4  6  1  0  0  0  0
  4 28  1  0  0  0  0
  5 30  1  0  0  0  0
  5  7  1  0  0  0  0
  5 29  1  0  0  0  0
  6  8  1  0  0  0  0
  6 32  1  0  0  0  0
  6 31  1  0  0  0  0
  7  9  2  0  0  0  0
  7 10  2  0  0  0  0
  7 11  1  0  0  0  0
  8 33  1  0  0  0  0
  8 12  1  0  0  0  0
  8 34  1  0  0  0  0
 12 13  1  0  0  0  0
 12 36  1  0  0  0  0
 12 35  1  0  0  0  0
 13 37  1  0  0  0  0
 13 14  1  0  0  0  0
 13 38  1  0  0  0  0
 14 15  1  0  0  0  0
 14 40  1  0  0  0  0
 14 39  1  0  0  0  0
 15 41  1  0  0  0  0
 15 16  1  0  0  0  0
 15 42  1  0  0  0  0
 16 17  1  0  0  0  0
 16 44  1  0  0  0  0
 16 43  1  0  0  0  0
 17 45  1  0  0  0  0
 17 18  1  0  0  0  0
 17 46  1  0  0  0  0
 18 19  1  0  0  0  0
 18 48  1  0  0  0  0
 18 47  1  0  0  0  0
 19 49  1  0  0  0  0
 19 20  1  0  0  0  0
 19 50  1  0  0  0  0
 20 51  1  0  0  0  0
 20 53  1  0  0  0  0
 20 52  1  0  0  0  0
M  END
