decoy-714
 OpenBabel06062114513D

 15 15  0  0  0  0  0  0  0  0999 V2000
   -0.1290    1.4740   -0.0460 C   0  0  0  0  0  0  0  0  0  0  0  0
   -0.0870   -0.0720   -0.0560 C   0  0  0  0  0  0  0  0  0  0  0  0
    1.3200    1.9500    0.1800 C   0  0  0  0  0  0  0  0  0  0  0  0
    1.3870   -0.4710    0.1600 C   0  0  0  0  0  0  0  0  0  0  0  0
    2.1990    0.7660   -0.2560 C   0  0  0  0  0  0  0  0  0  0  0  0
   -0.7860    1.8480    0.7440 H   0  0  0  0  0  0  0  0  0  0  0  0
   -0.4380   -0.4500   -1.0210 H   0  0  0  0  0  0  0  0  0  0  0  0
    1.5470    2.8500   -0.3980 H   0  0  0  0  0  0  0  0  0  0  0  0
    1.6610   -1.3470   -0.4330 H   0  0  0  0  0  0  0  0  0  0  0  0
    3.1780    0.7890    0.2290 H   0  0  0  0  0  0  0  0  0  0  0  0
   -0.4980    1.8450   -1.0080 H   0  0  0  0  0  0  0  0  0  0  0  0
   -0.7200   -0.4900    0.7320 H   0  0  0  0  0  0  0  0  0  0  0  0
    1.4840    2.1600    1.2420 H   0  0  0  0  0  0  0  0  0  0  0  0
    1.5640   -0.6900    1.2180 H   0  0  0  0  0  0  0  0  0  0  0  0
    2.3350    0.7790   -1.3420 H   0  0  0  0  0  0  0  0  0  0  0  0
  1  3  1  0  0  0  0
  1  6  1  0  0  0  0
  1  2  1  0  0  0  0
  1 11  1  0  0  0  0
  2  4  1  0  0  0  0
  2 12  1  0  0  0  0
  2  7  1  0  0  0  0
  3 13  1  0  0  0  0
  3  5  1  0  0  0  0
  3  8  1  0  0  0  0
  4 14  1  0  0  0  0
  4  5  1  0  0  0  0
  4  9  1  0  0  0  0
  5 10  1  0  0  0  0
  5 15  1  0  0  0  0
M  END
