decoy-302
 OpenBabel06062114513D

 60 59  0  0  0  0  0  0  0  0999 V2000
    0.2130    1.5390   -0.0210 C   0  0  0  0  0  0  0  0  0  0  0  0
    0.1690   -0.0110    0.0240 C   0  0  0  0  0  0  0  0  0  0  0  0
    1.6540    2.0960    0.0180 C   0  0  0  0  0  0  0  0  0  0  0  0
   -1.2780   -0.5680   -0.0160 C   0  0  0  0  0  0  0  0  0  0  0  0
    1.6190    3.5220   -0.0260 O   0  0  0  0  0  0  0  0  0  0  0  0
   -1.3230   -2.1190    0.0290 C   0  0  0  0  0  0  0  0  0  0  0  0
    3.0230    4.4670    0.0010 S   0  0  0  0  0  0  0  0  0  0  0  0
   -2.7710   -2.6760   -0.0100 C   0  0  0  0  0  0  0  0  0  0  0  0
    3.9800    4.1720   -1.3610 O   0  0  0  0  0  0  0  0  0  0  0  0
    2.5320    6.0830   -0.0670 O   0  0  0  0  0  0  0  0  0  0  0  0
    3.8720    4.2560    1.4470 O   0  0  0  0  0  0  0  0  0  0  0  0
   -2.8150   -4.2260    0.0340 C   0  0  0  0  0  0  0  0  0  0  0  0
   -4.2630   -4.7830   -0.0050 C   0  0  0  0  0  0  0  0  0  0  0  0
   -4.3070   -6.3340    0.0390 C   0  0  0  0  0  0  0  0  0  0  0  0
   -5.7550   -6.8910    0.0000 C   0  0  0  0  0  0  0  0  0  0  0  0
   -5.7990   -8.4420    0.0440 C   0  0  0  0  0  0  0  0  0  0  0  0
   -7.2470   -8.9990    0.0050 C   0  0  0  0  0  0  0  0  0  0  0  0
   -7.2910  -10.5490    0.0500 C   0  0  0  0  0  0  0  0  0  0  0  0
   -8.7390  -11.1060    0.0100 C   0  0  0  0  0  0  0  0  0  0  0  0
   -8.7830  -12.6570    0.0550 C   0  0  0  0  0  0  0  0  0  0  0  0
  -10.2310  -13.2140    0.0150 C   0  0  0  0  0  0  0  0  0  0  0  0
  -10.2740  -14.7640    0.0600 C   0  0  0  0  0  0  0  0  0  0  0  0
  -11.7140  -15.3220    0.0210 C   0  0  0  0  0  0  0  0  0  0  0  0
   -0.2730    1.8870   -0.9370 H   0  0  0  0  0  0  0  0  0  0  0  0
   -0.3410    1.9400    0.8330 H   0  0  0  0  0  0  0  0  0  0  0  0
    0.7270   -0.4070   -0.8300 H   0  0  0  0  0  0  0  0  0  0  0  0
    0.6580   -0.3550    0.9400 H   0  0  0  0  0  0  0  0  0  0  0  0
    2.1500    1.7760    0.9380 H   0  0  0  0  0  0  0  0  0  0  0  0
    2.2190    1.7230   -0.8390 H   0  0  0  0  0  0  0  0  0  0  0  0
   -1.8360   -0.1720    0.8380 H   0  0  0  0  0  0  0  0  0  0  0  0
   -1.7670   -0.2240   -0.9320 H   0  0  0  0  0  0  0  0  0  0  0  0
   -0.7660   -2.5150   -0.8250 H   0  0  0  0  0  0  0  0  0  0  0  0
   -0.8340   -2.4630    0.9450 H   0  0  0  0  0  0  0  0  0  0  0  0
   -3.3280   -2.2790    0.8430 H   0  0  0  0  0  0  0  0  0  0  0  0
   -3.2590   -2.3320   -0.9260 H   0  0  0  0  0  0  0  0  0  0  0  0
   -2.2580   -4.6230   -0.8190 H   0  0  0  0  0  0  0  0  0  0  0  0
   -2.3260   -4.5700    0.9500 H   0  0  0  0  0  0  0  0  0  0  0  0
   -4.8200   -4.3870    0.8480 H   0  0  0  0  0  0  0  0  0  0  0  0
   -4.7520   -4.4400   -0.9210 H   0  0  0  0  0  0  0  0  0  0  0  0
   -3.7500   -6.7310   -0.8140 H   0  0  0  0  0  0  0  0  0  0  0  0
   -3.8180   -6.6780    0.9550 H   0  0  0  0  0  0  0  0  0  0  0  0
   -6.3120   -6.4950    0.8530 H   0  0  0  0  0  0  0  0  0  0  0  0
   -6.2440   -6.5470   -0.9160 H   0  0  0  0  0  0  0  0  0  0  0  0
   -5.2420   -8.8380   -0.8090 H   0  0  0  0  0  0  0  0  0  0  0  0
   -5.3100   -8.7850    0.9600 H   0  0  0  0  0  0  0  0  0  0  0  0
   -7.8040   -8.6020    0.8590 H   0  0  0  0  0  0  0  0  0  0  0  0
   -7.7360   -8.6550   -0.9110 H   0  0  0  0  0  0  0  0  0  0  0  0
   -6.7340  -10.9460   -0.8040 H   0  0  0  0  0  0  0  0  0  0  0  0
   -6.8020  -10.8930    0.9660 H   0  0  0  0  0  0  0  0  0  0  0  0
   -9.2960  -10.7100    0.8640 H   0  0  0  0  0  0  0  0  0  0  0  0
   -9.2280  -10.7620   -0.9060 H   0  0  0  0  0  0  0  0  0  0  0  0
   -8.2260  -13.0530   -0.7990 H   0  0  0  0  0  0  0  0  0  0  0  0
   -8.2950  -13.0010    0.9710 H   0  0  0  0  0  0  0  0  0  0  0  0
  -10.7890  -12.8180    0.8690 H   0  0  0  0  0  0  0  0  0  0  0  0
  -10.7200  -12.8710   -0.9010 H   0  0  0  0  0  0  0  0  0  0  0  0
   -9.7220  -15.1670   -0.7930 H   0  0  0  0  0  0  0  0  0  0  0  0
   -9.7900  -15.1140    0.9750 H   0  0  0  0  0  0  0  0  0  0  0  0
  -11.6890  -16.4130    0.0540 H   0  0  0  0  0  0  0  0  0  0  0  0
  -12.2860  -14.9600    0.8780 H   0  0  0  0  0  0  0  0  0  0  0  0
  -12.2170  -15.0130   -0.8980 H   0  0  0  0  0  0  0  0  0  0  0  0
  1  3  1  0  0  0  0
  1  2  1  0  0  0  0
  1 25  1  0  0  0  0
  1 24  1  0  0  0  0
  2 27  1  0  0  0  0
  2  4  1  0  0  0  0
  2 26  1  0  0  0  0
  3 28  1  0  0  0  0
  3  5  1  0  0  0  0
  3 29  1  0  0  0  0
  4  6  1  0  0  0  0
  4 30  1  0  0  0  0
  4 31  1  0  0  0  0
  5  7  1  0  0  0  0
  6 33  1  0  0  0  0
  6  8  1  0  0  0  0
  6 32  1  0  0  0  0
  7 11  1  0  0  0  0
  7  9  2  0  0  0  0
  7 10  2  0  0  0  0
  8 12  1  0  0  0  0
  8 34  1  0  0  0  0
  8 35  1  0  0  0  0
 12 37  1  0  0  0  0
 12 13  1  0  0  0  0
 12 36  1  0  0  0  0
 13 14  1  0  0  0  0
 13 38  1  0  0  0  0
 13 39  1  0  0  0  0
 14 41  1  0  0  0  0
 14 15  1  0  0  0  0
 14 40  1  0  0  0  0
 15 16  1  0  0  0  0
 15 42  1  0  0  0  0
 15 43  1  0  0  0  0
 16 45  1  0  0  0  0
 16 17  1  0  0  0  0
 16 44  1  0  0  0  0
 17 18  1  0  0  0  0
 17 46  1  0  0  0  0
 17 47  1  0  0  0  0
 18 49  1  0  0  0  0
 18 19  1  0  0  0  0
 18 48  1  0  0  0  0
 19 20  1  0  0  0  0
 19 50  1  0  0  0  0
 19 51  1  0  0  0  0
 20 53  1  0  0  0  0
 20 21  1  0  0  0  0
 20 52  1  0  0  0  0
 21 22  1  0  0  0  0
 21 54  1  0  0  0  0
 21 55  1  0  0  0  0
 22 57  1  0  0  0  0
 22 23  1  0  0  0  0
 22 56  1  0  0  0  0
 23 58  1  0  0  0  0
 23 59  1  0  0  0  0
 23 60  1  0  0  0  0
M  END
