decoy-192
 OpenBabel06062114503D

 22 24  0  0  0  0  0  0  0  0999 V2000
   -0.0180    1.4270    0.0070 C   0  0  0  0  0  0  0  0  0  0  0  0
    0.0000    0.0370    0.0000 C   0  0  0  0  0  0  0  0  0  0  0  0
    1.3180    1.8430   -0.0020 C   0  0  0  0  0  0  0  0  0  0  0  0
   -1.0670    2.3650    0.0200 C   0  0  0  0  0  0  0  0  0  0  0  0
    1.3470   -0.3430   -0.0130 C   0  0  0  0  0  0  0  0  0  0  0  0
   -1.0230   -0.9280    0.0040 C   0  0  0  0  0  0  0  0  0  0  0  0
    2.1150    0.7610   -0.0140 N   0  0  0  0  0  0  0  0  0  0  0  0
    1.6480    3.2090    0.0020 C   0  0  0  0  0  0  0  0  0  0  0  0
   -0.7460    3.7390    0.0240 C   0  0  0  0  0  0  0  0  0  0  0  0
    1.7140   -1.6990   -0.0230 C   0  0  0  0  0  0  0  0  0  0  0  0
   -0.6650   -2.2940   -0.0060 C   0  0  0  0  0  0  0  0  0  0  0  0
    0.6040    4.1580    0.0150 C   0  0  0  0  0  0  0  0  0  0  0  0
   -2.1090    5.0050    0.0410 Br  0  0  0  0  0  0  0  0  0  0  0  0
    0.6960   -2.6760   -0.0190 C   0  0  0  0  0  0  0  0  0  0  0  0
   -1.9930   -3.5960   -0.0010 Br  0  0  0  0  0  0  0  0  0  0  0  0
   -2.0410    2.0560    0.0270 H   0  0  0  0  0  0  0  0  0  0  0  0
   -2.0050   -0.6470    0.0130 H   0  0  0  0  0  0  0  0  0  0  0  0
    3.0860    0.7740   -0.0220 H   0  0  0  0  0  0  0  0  0  0  0  0
    2.6250    3.5080   -0.0050 H   0  0  0  0  0  0  0  0  0  0  0  0
    2.6990   -1.9710   -0.0320 H   0  0  0  0  0  0  0  0  0  0  0  0
    0.8280    5.1550    0.0180 H   0  0  0  0  0  0  0  0  0  0  0  0
    0.9470   -3.6670   -0.0260 H   0  0  0  0  0  0  0  0  0  0  0  0
  1  4  2  0  0  0  0
  1  2  1  0  0  0  0
  1  3  1  0  0  0  0
  2  6  2  0  0  0  0
  2  5  1  0  0  0  0
  3  8  2  0  0  0  0
  3  7  1  0  0  0  0
  4  9  1  0  0  0  0
  4 16  1  0  0  0  0
  5  7  1  0  0  0  0
  5 10  2  0  0  0  0
  6 17  1  0  0  0  0
  6 11  1  0  0  0  0
  7 18  1  0  0  0  0
  8 12  1  0  0  0  0
  8 19  1  0  0  0  0
  9 13  1  0  0  0  0
  9 12  2  0  0  0  0
 10 14  1  0  0  0  0
 10 20  1  0  0  0  0
 11 15  1  0  0  0  0
 11 14  2  0  0  0  0
 12 21  1  0  0  0  0
 14 22  1  0  0  0  0
M  END
