
  ACD/Labs06062116153D

 48 50  0  0  0  0  0  0  0  0  1 V2000
   20.6293   -8.0511    0.2615 C   0  0  0  0  0  0  0  0  0  0  0  0
   20.1952   -9.3287   -0.1009 C   0  0  0  0  0  0  0  0  0  0  0  0
   22.0110   -7.8830    0.1464 C   0  0  0  0  0  0  0  0  0  0  0  0
   19.7860   -7.0642    0.6869 C   0  0  0  0  0  0  0  0  0  0  0  0
   19.8141   -9.6073   -1.4328 C   0  0  0  0  0  0  0  0  0  0  0  0
   20.1149  -10.3564    0.8638 C   0  0  0  0  0  0  0  0  0  0  0  0
   22.8618   -8.1517    1.2432 C   0  0  0  0  0  0  0  0  0  0  0  0
   22.5765   -7.4232   -1.0630 C   0  0  0  0  0  0  0  0  0  0  0  0
   20.2452   -5.7942    1.0432 C   0  0  0  0  0  0  0  0  0  0  0  0
   18.4121   -7.2653    0.7921 C   0  0  0  0  0  0  0  0  0  0  0  0
   19.3640  -10.8938   -1.8146 C   0  0  0  0  0  0  0  0  0  0  0  0
   19.6713  -11.6386    0.4998 C   0  0  0  0  0  0  0  0  0  0  0  0
   24.2628   -7.9767    1.1456 C   0  0  0  0  0  0  0  0  0  0  0  0
   23.9650   -7.2445   -1.1741 C   0  0  0  0  0  0  0  0  0  0  0  0
   19.4212   -4.8022    1.4695 C   0  0  0  0  0  0  0  0  0  0  0  0
   17.5770   -6.2949    1.2122 C   0  0  0  0  0  0  0  0  0  0  0  0
   19.2971  -11.9138   -0.8306 C   0  0  0  0  0  0  0  0  0  0  0  0
   18.9710  -11.1597   -3.2216 C   0  0  0  0  0  0  0  0  0  0  0  0
   24.8109   -7.5194   -0.0800 C   0  0  0  0  0  0  0  0  0  0  0  0
   25.1340   -8.2683    2.3131 C   0  0  0  0  0  0  0  0  0  0  0  0
   18.0622   -5.0619    1.5544 C   0  0  0  0  0  0  0  0  0  0  0  0
   19.9614   -3.4898    1.8300 C   0  0  0  0  0  0  0  0  0  0  0  0
   18.8780  -13.1604   -1.1256 N   0  0  0  0  0  0  0  0  0  0  0  0
   26.1358   -7.3307   -0.2408 N   0  0  0  0  0  0  0  0  0  0  0  0
   17.2165   -4.1813    1.9472 N   0  0  0  0  0  0  0  0  0  0  0  0
   19.8615   -8.8608   -2.1323 H   0  0  0  0  0  0  0  0  0  0  0  0
   20.3757  -10.1780    1.8373 H   0  0  0  0  0  0  0  0  0  0  0  0
   22.4523   -8.4755    2.1239 H   0  0  0  0  0  0  0  0  0  0  0  0
   21.9816   -7.2115   -1.8681 H   0  0  0  0  0  0  0  0  0  0  0  0
   21.2162   -5.5948    0.9855 H   0  0  0  0  0  0  0  0  0  0  0  0
   18.0027   -8.1394    0.5580 H   0  0  0  0  0  0  0  0  0  0  0  0
   19.6206  -12.3701    1.2142 H   0  0  0  0  0  0  0  0  0  0  0  0
   24.3556   -6.9104   -2.0590 H   0  0  0  0  0  0  0  0  0  0  0  0
   16.6009   -6.4881    1.2714 H   0  0  0  0  0  0  0  0  0  0  0  0
   19.0775  -10.2791   -3.8581 H   0  0  0  0  0  0  0  0  0  0  0  0
   19.5988  -11.9518   -3.6351 H   0  0  0  0  0  0  0  0  0  0  0  0
   17.9284  -11.4787   -3.2580 H   0  0  0  0  0  0  0  0  0  0  0  0
   24.5666   -8.6109    3.1807 H   0  0  0  0  0  0  0  0  0  0  0  0
   25.8514   -9.0473    2.0501 H   0  0  0  0  0  0  0  0  0  0  0  0
   25.6775   -7.3660    2.5998 H   0  0  0  0  0  0  0  0  0  0  0  0
   21.0466   -3.4228    1.7163 H   0  0  0  0  0  0  0  0  0  0  0  0
   19.5153   -2.7210    1.1952 H   0  0  0  0  0  0  0  0  0  0  0  0
   19.7253   -3.2674    2.8717 H   0  0  0  0  0  0  0  0  0  0  0  0
   18.6120  -13.3862   -2.0309 H   0  0  0  0  0  0  0  0  0  0  0  0
   18.8414  -13.8387   -0.4326 H   0  0  0  0  0  0  0  0  0  0  0  0
   26.7473   -7.5082    0.4904 H   0  0  0  0  0  0  0  0  0  0  0  0
   26.4828   -7.0158   -1.0908 H   0  0  0  0  0  0  0  0  0  0  0  0
   17.4949   -3.3232    2.1931 H   0  0  0  0  0  0  0  0  0  0  0  0
  1  4  2  0  0  0  0
  1  2  1  0  0  0  0
  1  3  1  0  0  0  0
  2  6  2  0  0  0  0
  2  5  1  0  0  0  0
  3  7  2  0  0  0  0
  3  8  1  0  0  0  0
  4 10  1  0  0  0  0
  4  9  1  0  0  0  0
  5 11  2  0  0  0  0
  5 26  1  0  0  0  0
  6 12  1  0  0  0  0
  6 27  1  0  0  0  0
  7 28  1  0  0  0  0
  7 13  1  0  0  0  0
  8 14  2  0  0  0  0
  8 29  1  0  0  0  0
  9 15  2  0  0  0  0
  9 30  1  0  0  0  0
 10 16  2  0  0  0  0
 10 31  1  0  0  0  0
 11 17  1  0  0  0  0
 11 18  1  0  0  0  0
 12 32  1  0  0  0  0
 12 17  2  0  0  0  0
 13 20  1  0  0  0  0
 13 19  2  0  0  0  0
 14 19  1  0  0  0  0
 14 33  1  0  0  0  0
 15 21  1  0  0  0  0
 15 22  1  0  0  0  0
 16 34  1  0  0  0  0
 16 21  1  0  0  0  0
 17 23  1  0  0  0  0
 18 35  1  0  0  0  0
 18 36  1  0  0  0  0
 18 37  1  0  0  0  0
 19 24  1  0  0  0  0
 20 40  1  0  0  0  0
 20 39  1  0  0  0  0
 20 38  1  0  0  0  0
 21 25  2  0  0  0  0
 22 43  1  0  0  0  0
 22 41  1  0  0  0  0
 22 42  1  0  0  0  0
 23 45  1  0  0  0  0
 23 44  1  0  0  0  0
 24 46  1  0  0  0  0
 24 47  1  0  0  0  0
 25 48  1  0  0  0  0
M  END
