decoy-626
 OpenBabel06062114513D

 52 55  0  0  0  0  0  0  0  0999 V2000
   -0.5080    1.2100    0.5460 C   0  0  0  0  0  0  0  0  0  0  0  0
   -0.3670   -0.3710    0.3690 C   0  0  0  0  0  0  0  0  0  0  0  0
    0.8920    1.9530    0.5000 C   0  0  0  0  0  0  0  0  0  0  0  0
   -1.4630    1.7380    1.6920 C   0  0  0  0  0  0  0  0  0  0  0  0
    0.4020   -0.6190   -0.9970 C   0  0  0  0  0  0  0  0  0  0  0  0
   -1.7880   -1.0390    0.2220 C   0  0  0  0  0  0  0  0  0  0  0  0
    0.3770   -1.0440    1.5850 C   0  0  0  0  0  0  0  0  0  0  0  0
    0.6540    3.4950    0.5700 C   0  0  0  0  0  0  0  0  0  0  0  0
    1.7040    1.5760   -0.7780 C   0  0  0  0  0  0  0  0  0  0  0  0
   -1.4930    3.2960    1.8390 C   0  0  0  0  0  0  0  0  0  0  0  0
   -1.1990    1.1720    2.9710 O   0  0  0  0  0  0  0  0  0  0  0  0
    1.8090    0.0480   -1.0100 C   0  0  0  0  0  0  0  0  0  0  0  0
    0.4620   -2.1130   -1.4460 C   0  0  0  0  0  0  0  0  0  0  0  0
   -1.7610   -2.5300   -0.2170 C   0  0  0  0  0  0  0  0  0  0  0  0
   -0.0650    3.9320    1.8830 C   0  0  0  0  0  0  0  0  0  0  0  0
    1.8060    4.5130    0.4410 C   0  0  0  0  0  0  0  0  0  0  0  0
   -0.9520   -2.7520   -1.5200 C   0  0  0  0  0  0  0  0  0  0  0  0
    0.0040    5.3740    1.7170 C   0  0  0  0  0  0  0  0  0  0  0  0
    0.6680    3.6030    3.2350 C   0  0  0  0  0  0  0  0  0  0  0  0
    1.1320    5.8200    0.9280 C   0  0  0  0  0  0  0  0  0  0  0  0
   -1.6780   -2.2190   -2.6280 O   0  0  0  0  0  0  0  0  0  0  0  0
   -0.6830    6.1580    2.3590 O   0  0  0  0  0  0  0  0  0  0  0  0
   -1.0240    1.5490   -0.3610 H   0  0  0  0  0  0  0  0  0  0  0  0
    1.4980    1.6650    1.3580 H   0  0  0  0  0  0  0  0  0  0  0  0
   -0.1640   -0.1180   -1.7920 H   0  0  0  0  0  0  0  0  0  0  0  0
    0.0000    3.7200   -0.2890 H   0  0  0  0  0  0  0  0  0  0  0  0
   -2.4870    1.4400    1.4500 H   0  0  0  0  0  0  0  0  0  0  0  0
   -2.3320   -0.9810    1.1680 H   0  0  0  0  0  0  0  0  0  0  0  0
   -2.3770   -0.4860   -0.5160 H   0  0  0  0  0  0  0  0  0  0  0  0
    1.2910   -0.5200    1.8540 H   0  0  0  0  0  0  0  0  0  0  0  0
   -0.2500   -1.0840    2.4720 H   0  0  0  0  0  0  0  0  0  0  0  0
    0.6590   -2.0720    1.3710 H   0  0  0  0  0  0  0  0  0  0  0  0
    1.2340    2.0260   -1.6570 H   0  0  0  0  0  0  0  0  0  0  0  0
    2.7160    1.9830   -0.7010 H   0  0  0  0  0  0  0  0  0  0  0  0
   -2.0500    3.7100    0.9920 H   0  0  0  0  0  0  0  0  0  0  0  0
   -2.0500    3.5680    2.7400 H   0  0  0  0  0  0  0  0  0  0  0  0
   -1.5720    0.2680    2.9340 H   0  0  0  0  0  0  0  0  0  0  0  0
    2.4530   -0.3990   -0.2490 H   0  0  0  0  0  0  0  0  0  0  0  0
    2.2880   -0.1180   -1.9790 H   0  0  0  0  0  0  0  0  0  0  0  0
    0.9210   -2.1790   -2.4360 H   0  0  0  0  0  0  0  0  0  0  0  0
    1.0900   -2.6940   -0.7680 H   0  0  0  0  0  0  0  0  0  0  0  0
   -1.3330   -3.1410    0.5820 H   0  0  0  0  0  0  0  0  0  0  0  0
   -2.7870   -2.8760   -0.3690 H   0  0  0  0  0  0  0  0  0  0  0  0
    2.6460    4.2350    1.0830 H   0  0  0  0  0  0  0  0  0  0  0  0
    2.1590    4.6060   -0.5890 H   0  0  0  0  0  0  0  0  0  0  0  0
   -0.8460   -3.8270   -1.6900 H   0  0  0  0  0  0  0  0  0  0  0  0
    1.6490    4.0800    3.2970 H   0  0  0  0  0  0  0  0  0  0  0  0
    0.0750    3.9590    4.0810 H   0  0  0  0  0  0  0  0  0  0  0  0
    0.8280    2.5370    3.3720 H   0  0  0  0  0  0  0  0  0  0  0  0
    1.8240    6.4170    1.5280 H   0  0  0  0  0  0  0  0  0  0  0  0
    0.7750    6.4120    0.0820 H   0  0  0  0  0  0  0  0  0  0  0  0
   -1.1420   -2.4450   -3.4170 H   0  0  0  0  0  0  0  0  0  0  0  0
  1  2  1  0  0  0  0
  1  3  1  0  0  0  0
  1  4  1  0  0  0  0
  1 23  1  0  0  0  0
  2  5  1  0  0  0  0
  2  7  1  0  0  0  0
  2  6  1  0  0  0  0
  3 24  1  0  0  0  0
  3  8  1  0  0  0  0
  3  9  1  0  0  0  0
  4 10  1  0  0  0  0
  4 11  1  0  0  0  0
  4 27  1  0  0  0  0
  5 25  1  0  0  0  0
  5 12  1  0  0  0  0
  5 13  1  0  0  0  0
  6 28  1  0  0  0  0
  6 14  1  0  0  0  0
  6 29  1  0  0  0  0
  7 30  1  0  0  0  0
  7 31  1  0  0  0  0
  7 32  1  0  0  0  0
  8 15  1  0  0  0  0
  8 16  1  0  0  0  0
  8 26  1  0  0  0  0
  9 34  1  0  0  0  0
  9 12  1  0  0  0  0
  9 33  1  0  0  0  0
 10 15  1  0  0  0  0
 10 36  1  0  0  0  0
 10 35  1  0  0  0  0
 11 37  1  0  0  0  0
 12 38  1  0  0  0  0
 12 39  1  0  0  0  0
 13 41  1  0  0  0  0
 13 17  1  0  0  0  0
 13 40  1  0  0  0  0
 14 42  1  0  0  0  0
 14 17  1  0  0  0  0
 14 43  1  0  0  0  0
 15 19  1  0  0  0  0
 15 18  1  0  0  0  0
 16 20  1  0  0  0  0
 16 44  1  0  0  0  0
 16 45  1  0  0  0  0
 17 46  1  0  0  0  0
 17 21  1  0  0  0  0
 18 22  2  0  0  0  0
 18 20  1  0  0  0  0
 19 47  1  0  0  0  0
 19 49  1  0  0  0  0
 19 48  1  0  0  0  0
 20 50  1  0  0  0  0
 20 51  1  0  0  0  0
 21 52  1  0  0  0  0
M  END
