decoy-467
 OpenBabel06062114513D

 37 39  0  0  0  0  0  0  0  0999 V2000
   -0.0820    1.4860   -0.0630 N   0  0  0  0  0  0  0  0  0  0  0  0
   -0.0940    0.0720   -0.3270 C   0  0  0  0  0  0  0  0  0  0  0  0
    1.0140    2.2620    0.0140 C   0  0  0  0  0  0  0  0  0  0  0  0
   -1.1410    2.2990    0.1500 C   0  0  0  0  0  0  0  0  0  0  0  0
    0.5220   -0.7670    0.8260 C   0  0  0  0  0  0  0  0  0  0  0  0
   -1.4230   -0.4360   -0.5330 O   0  0  0  0  0  0  0  0  0  0  0  0
    0.5930    3.5610    0.2830 C   0  0  0  0  0  0  0  0  0  0  0  0
    2.3340    1.9710   -0.1210 N   0  0  0  0  0  0  0  0  0  0  0  0
   -0.7440    3.5680    0.3640 N   0  0  0  0  0  0  0  0  0  0  0  0
   -0.5720   -1.8000    1.1730 C   0  0  0  0  0  0  0  0  0  0  0  0
    1.7320   -1.3980    0.4030 O   0  0  0  0  0  0  0  0  0  0  0  0
   -1.4150   -1.8050   -0.1160 C   0  0  0  0  0  0  0  0  0  0  0  0
    1.5580    4.5740    0.4140 C   0  0  0  0  0  0  0  0  0  0  0  0
    3.2610    2.9580    0.0080 C   0  0  0  0  0  0  0  0  0  0  0  0
   -0.1040   -3.1390    1.4540 O   0  0  0  0  0  0  0  0  0  0  0  0
   -2.8590   -2.3210    0.0790 C   0  0  0  0  0  0  0  0  0  0  0  0
    2.8700    4.2370    0.2720 N   0  0  0  0  0  0  0  0  0  0  0  0
    1.2140    5.8450    0.6730 N   0  0  0  0  0  0  0  0  0  0  0  0
    0.4390   -3.4190    2.8870 P   0  0  0  0  0  0  0  0  0  0  0  0
   -3.5650   -2.2920   -1.1570 O   0  0  0  0  0  0  0  0  0  0  0  0
    0.9110   -4.8850    2.9160 O   0  0  0  0  0  0  0  0  0  0  0  0
    1.6470   -2.5380    3.2650 O   0  0  0  0  0  0  0  0  0  0  0  0
   -0.5990   -3.2870    3.8780 O   0  0  0  0  0  0  0  0  0  0  0  0
    0.4560   -0.1010   -1.2590 H   0  0  0  0  0  0  0  0  0  0  0  0
   -2.1210    2.0090    0.1570 H   0  0  0  0  0  0  0  0  0  0  0  0
    0.7430   -0.1540    1.7040 H   0  0  0  0  0  0  0  0  0  0  0  0
   -1.1960   -1.4060    1.9860 H   0  0  0  0  0  0  0  0  0  0  0  0
    2.3460   -0.6600    0.2040 H   0  0  0  0  0  0  0  0  0  0  0  0
   -0.9270   -2.4160   -0.8850 H   0  0  0  0  0  0  0  0  0  0  0  0
    4.2530    2.7410   -0.0940 H   0  0  0  0  0  0  0  0  0  0  0  0
   -2.8410   -3.3500    0.4460 H   0  0  0  0  0  0  0  0  0  0  0  0
   -3.3920   -1.6980    0.8000 H   0  0  0  0  0  0  0  0  0  0  0  0
    1.9000    6.5260    0.7590 H   0  0  0  0  0  0  0  0  0  0  0  0
    0.2800    6.0860    0.7750 H   0  0  0  0  0  0  0  0  0  0  0  0
   -4.4600   -2.6300   -0.9440 H   0  0  0  0  0  0  0  0  0  0  0  0
    1.2340   -5.0240    3.8310 H   0  0  0  0  0  0  0  0  0  0  0  0
    1.2910   -1.6260    3.2970 H   0  0  0  0  0  0  0  0  0  0  0  0
  1  3  1  0  0  0  0
  1  4  1  0  0  0  0
  1  2  1  0  0  0  0
  2  5  1  0  0  0  0
  2  6  1  0  0  0  0
  2 24  1  0  0  0  0
  3  7  2  0  0  0  0
  3  8  1  0  0  0  0
  4 25  1  0  0  0  0
  4  9  2  0  0  0  0
  5 10  1  0  0  0  0
  5 26  1  0  0  0  0
  5 11  1  0  0  0  0
  6 12  1  0  0  0  0
  7  9  1  0  0  0  0
  7 13  1  0  0  0  0
  8 14  2  0  0  0  0
 10 12  1  0  0  0  0
 10 15  1  0  0  0  0
 10 27  1  0  0  0  0
 11 28  1  0  0  0  0
 12 29  1  0  0  0  0
 12 16  1  0  0  0  0
 13 18  1  0  0  0  0
 13 17  2  0  0  0  0
 14 17  1  0  0  0  0
 14 30  1  0  0  0  0
 15 19  1  0  0  0  0
 16 31  1  0  0  0  0
 16 32  1  0  0  0  0
 16 20  1  0  0  0  0
 18 33  1  0  0  0  0
 18 34  1  0  0  0  0
 19 21  1  0  0  0  0
 19 22  1  0  0  0  0
 19 23  2  0  0  0  0
 20 35  1  0  0  0  0
 21 36  1  0  0  0  0
 22 37  1  0  0  0  0
M  END
