decoy-628
 OpenBabel06062114513D

 27 26  0  0  0  0  0  0  0  0999 V2000
    0.0510    1.5070   -0.0050 C   0  0  0  0  0  0  0  0  0  0  0  0
   -0.0500   -0.0690   -0.0200 C   0  0  0  0  0  0  0  0  0  0  0  0
    1.5070    2.1180    0.0150 C   0  0  0  0  0  0  0  0  0  0  0  0
   -0.6120    1.9980   -1.1090 F   0  0  0  0  0  0  0  0  0  0  0  0
   -0.6340    1.9800    1.0930 F   0  0  0  0  0  0  0  0  0  0  0  0
   -1.5060   -0.6790   -0.0140 C   0  0  0  0  0  0  0  0  0  0  0  0
    0.6130   -0.5420   -1.1320 F   0  0  0  0  0  0  0  0  0  0  0  0
    0.6310   -0.5650    1.0700 F   0  0  0  0  0  0  0  0  0  0  0  0
    1.6010    3.6910    0.0110 C   0  0  0  0  0  0  0  0  0  0  0  0
    2.1700    1.6500    1.1280 F   0  0  0  0  0  0  0  0  0  0  0  0
    2.2050    1.6430   -1.0740 F   0  0  0  0  0  0  0  0  0  0  0  0
   -1.5980   -2.2490   -0.0590 C   0  0  0  0  0  0  0  0  0  0  0  0
   -2.1720   -0.2480    1.1140 F   0  0  0  0  0  0  0  0  0  0  0  0
   -2.2080   -0.1780   -1.0890 F   0  0  0  0  0  0  0  0  0  0  0  0
    3.0470    4.2860    0.0410 C   0  0  0  0  0  0  0  0  0  0  0  0
    0.9740    4.1960   -1.1080 F   0  0  0  0  0  0  0  0  0  0  0  0
    0.9230    4.2040    1.0960 F   0  0  0  0  0  0  0  0  0  0  0  0
   -3.0440   -2.8200    0.0000 C   0  0  0  0  0  0  0  0  0  0  0  0
   -1.0060   -2.7410   -1.2020 F   0  0  0  0  0  0  0  0  0  0  0  0
   -0.9120   -2.7980    1.0030 F   0  0  0  0  0  0  0  0  0  0  0  0
    3.7890    3.9010   -1.0500 F   0  0  0  0  0  0  0  0  0  0  0  0
    3.0120    5.6610    0.0310 F   0  0  0  0  0  0  0  0  0  0  0  0
    3.7360    3.9160    1.1720 F   0  0  0  0  0  0  0  0  0  0  0  0
   -3.8210   -2.4450   -1.1340 O   0  0  0  0  0  0  0  0  0  0  0  0
   -3.0100   -3.9120    0.0320 H   0  0  0  0  0  0  0  0  0  0  0  0
   -3.5540   -2.4740    0.9010 H   0  0  0  0  0  0  0  0  0  0  0  0
   -4.6960   -2.8620   -0.9890 H   0  0  0  0  0  0  0  0  0  0  0  0
  1  3  1  0  0  0  0
  1  5  1  0  0  0  0
  1  2  1  0  0  0  0
  1  4  1  0  0  0  0
  2  6  1  0  0  0  0
  2  8  1  0  0  0  0
  2  7  1  0  0  0  0
  3 10  1  0  0  0  0
  3  9  1  0  0  0  0
  3 11  1  0  0  0  0
  6 13  1  0  0  0  0
  6 12  1  0  0  0  0
  6 14  1  0  0  0  0
  9 15  1  0  0  0  0
  9 17  1  0  0  0  0
  9 16  1  0  0  0  0
 12 18  1  0  0  0  0
 12 20  1  0  0  0  0
 12 19  1  0  0  0  0
 15 23  1  0  0  0  0
 15 21  1  0  0  0  0
 15 22  1  0  0  0  0
 18 25  1  0  0  0  0
 18 26  1  0  0  0  0
 18 24  1  0  0  0  0
 24 27  1  0  0  0  0
M  END
