decoy-120
 OpenBabel06062114503D

 23 23  0  0  0  0  0  0  0  0999 V2000
   -0.0640    1.4360    0.1390 C   0  0  0  0  0  0  0  0  0  0  0  0
   -0.0460    0.0360   -0.0550 C   0  0  0  0  0  0  0  0  0  0  0  0
    1.1680    2.1210    0.2480 C   0  0  0  0  0  0  0  0  0  0  0  0
   -1.2630    2.1180    0.2390 C   0  0  0  0  0  0  0  0  0  0  0  0
    1.1720   -0.6620   -0.1540 C   0  0  0  0  0  0  0  0  0  0  0  0
    2.3890    1.4280    0.1500 C   0  0  0  0  0  0  0  0  0  0  0  0
   -1.4920    3.1680   -0.5320 N   0  0  0  0  0  0  0  0  0  0  0  0
   -2.1040    1.7310    1.0410 O   0  0  0  0  0  0  0  0  0  0  0  0
    2.3980    0.0340   -0.0750 C   0  0  0  0  0  0  0  0  0  0  0  0
    1.1250   -2.7030   -0.3890 I   0  0  0  0  0  0  0  0  0  0  0  0
    4.1420    2.4790    0.3680 I   0  0  0  0  0  0  0  0  0  0  0  0
   -2.6350    3.8840   -0.4970 C   0  0  0  0  0  0  0  0  0  0  0  0
    3.5830   -0.6450   -0.1460 O   0  0  0  0  0  0  0  0  0  0  0  0
    4.1030   -0.7530   -1.4840 C   0  0  0  0  0  0  0  0  0  0  0  0
   -0.9220   -0.4880   -0.1250 H   0  0  0  0  0  0  0  0  0  0  0  0
    1.1860    3.1310    0.4110 H   0  0  0  0  0  0  0  0  0  0  0  0
   -0.8030    3.4400   -1.1600 H   0  0  0  0  0  0  0  0  0  0  0  0
   -2.5810    4.6420   -1.1800 H   0  0  0  0  0  0  0  0  0  0  0  0
   -3.4270    3.2780   -0.7250 H   0  0  0  0  0  0  0  0  0  0  0  0
    5.0420   -1.3050   -1.4390 H   0  0  0  0  0  0  0  0  0  0  0  0
    3.4180   -1.2970   -2.1370 H   0  0  0  0  0  0  0  0  0  0  0  0
    4.3080    0.2300   -1.9140 H   0  0  0  0  0  0  0  0  0  0  0  0
   -2.7650    4.2780    0.4370 H   0  0  0  0  0  0  0  0  0  0  0  0
  1  4  1  0  0  0  0
  1  3  2  0  0  0  0
  1  2  1  0  0  0  0
  2  5  2  0  0  0  0
  2 15  1  0  0  0  0
  3 16  1  0  0  0  0
  3  6  1  0  0  0  0
  4  8  2  0  0  0  0
  4  7  1  0  0  0  0
  5  9  1  0  0  0  0
  5 10  1  0  0  0  0
  6 11  1  0  0  0  0
  6  9  2  0  0  0  0
  7 12  1  0  0  0  0
  7 17  1  0  0  0  0
  9 13  1  0  0  0  0
 12 23  1  0  0  0  0
 12 18  1  0  0  0  0
 12 19  1  0  0  0  0
 13 14  1  0  0  0  0
 14 20  1  0  0  0  0
 14 21  1  0  0  0  0
 14 22  1  0  0  0  0
M  END
