decoy-646
 OpenBabel06062114513D

 82 86  0  0  0  0  0  0  0  0999 V2000
   -0.9510    1.1410   -0.6130 C   0  0  0  0  0  0  0  0  0  0  0  0
   -0.5730   -0.3050   -0.7100 C   0  0  0  0  0  0  0  0  0  0  0  0
    0.2830    2.0170    0.0060 C   0  0  0  0  0  0  0  0  0  0  0  0
   -2.3090    1.2940    0.2100 C   0  0  0  0  0  0  0  0  0  0  0  0
   -1.2880    1.5720   -2.1100 C   0  0  0  0  0  0  0  0  0  0  0  0
   -1.5540   -1.4040   -0.4400 C   0  0  0  0  0  0  0  0  0  0  0  0
    0.6950   -0.6390   -1.0530 C   0  0  0  0  0  0  0  0  0  0  0  0
    1.5720    1.7950   -0.9050 C   0  0  0  0  0  0  0  0  0  0  0  0
    0.0090    3.5760    0.0600 C   0  0  0  0  0  0  0  0  0  0  0  0
    0.5780    1.5740    1.4870 C   0  0  0  0  0  0  0  0  0  0  0  0
   -2.7060    0.1930    1.2520 C   0  0  0  0  0  0  0  0  0  0  0  0
   -2.2030   -1.2850    0.9960 C   0  0  0  0  0  0  0  0  0  0  0  0
   -2.6110   -1.5600   -1.5880 C   0  0  0  0  0  0  0  0  0  0  0  0
    1.8310    0.2660   -1.1580 C   0  0  0  0  0  0  0  0  0  0  0  0
    2.8720    2.6980   -0.6320 C   0  0  0  0  0  0  0  0  0  0  0  0
    1.2400    4.5000    0.2980 C   0  0  0  0  0  0  0  0  0  0  0  0
   -3.3730   -2.3370    1.1700 C   0  0  0  0  0  0  0  0  0  0  0  0
   -1.1350   -1.6890    2.0840 C   0  0  0  0  0  0  0  0  0  0  0  0
   -3.6760   -2.6900   -1.3910 C   0  0  0  0  0  0  0  0  0  0  0  0
    2.4130    4.2250   -0.7040 C   0  0  0  0  0  0  0  0  0  0  0  0
    3.9000    2.4700   -1.8110 C   0  0  0  0  0  0  0  0  0  0  0  0
    3.5960    2.3170    0.7210 C   0  0  0  0  0  0  0  0  0  0  0  0
   -4.3710   -2.4420   -0.0120 C   0  0  0  0  0  0  0  0  0  0  0  0
   -1.6470   -1.6430    3.4150 O   0  0  0  0  0  0  0  0  0  0  0  0
   -4.7540   -2.5850   -2.5230 C   0  0  0  0  0  0  0  0  0  0  0  0
   -3.0420   -4.1180   -1.4860 C   0  0  0  0  0  0  0  0  0  0  0  0
    3.5600    5.3340   -0.7650 C   0  0  0  0  0  0  0  0  0  0  0  0
    5.0620    3.4940   -1.8940 C   0  0  0  0  0  0  0  0  0  0  0  0
    4.5520    4.9560   -1.9340 C   0  0  0  0  0  0  0  0  0  0  0  0
    2.9470    6.7400   -1.1230 C   0  0  0  0  0  0  0  0  0  0  0  0
    4.3350    5.5280    0.5830 C   0  0  0  0  0  0  0  0  0  0  0  0
    5.7040    5.8020   -1.9850 O   0  0  0  0  0  0  0  0  0  0  0  0
   -1.0280   -2.3630   -0.4460 H   0  0  0  0  0  0  0  0  0  0  0  0
    1.2630    2.1530   -1.8850 H   0  0  0  0  0  0  0  0  0  0  0  0
    1.9310    4.3290   -1.6850 H   0  0  0  0  0  0  0  0  0  0  0  0
   -2.3330    2.2530    0.7240 H   0  0  0  0  0  0  0  0  0  0  0  0
   -3.1590    1.3530   -0.4750 H   0  0  0  0  0  0  0  0  0  0  0  0
   -0.4910    1.3430   -2.8160 H   0  0  0  0  0  0  0  0  0  0  0  0
   -2.1580    1.0660   -2.5140 H   0  0  0  0  0  0  0  0  0  0  0  0
   -1.5220    2.6290   -2.1920 H   0  0  0  0  0  0  0  0  0  0  0  0
    0.9150   -1.5990   -1.1920 H   0  0  0  0  0  0  0  0  0  0  0  0
   -0.4290    3.9180   -0.8730 H   0  0  0  0  0  0  0  0  0  0  0  0
   -0.7170    3.8080    0.8420 H   0  0  0  0  0  0  0  0  0  0  0  0
    1.0860    0.6150    1.5170 H   0  0  0  0  0  0  0  0  0  0  0  0
    1.2040    2.2740    2.0270 H   0  0  0  0  0  0  0  0  0  0  0  0
   -0.3320    1.5040    2.0720 H   0  0  0  0  0  0  0  0  0  0  0  0
   -2.3860    0.5320    2.2390 H   0  0  0  0  0  0  0  0  0  0  0  0
   -3.7980    0.2020    1.3140 H   0  0  0  0  0  0  0  0  0  0  0  0
   -3.1760   -0.6380   -1.6720 H   0  0  0  0  0  0  0  0  0  0  0  0
   -2.0870   -1.7140   -2.5360 H   0  0  0  0  0  0  0  0  0  0  0  0
    2.5780   -0.1080   -0.4610 H   0  0  0  0  0  0  0  0  0  0  0  0
    2.2480    0.1370   -2.1610 H   0  0  0  0  0  0  0  0  0  0  0  0
    0.8760    5.5210    0.1780 H   0  0  0  0  0  0  0  0  0  0  0  0
    1.5780    4.4220    1.3290 H   0  0  0  0  0  0  0  0  0  0  0  0
   -2.9650   -3.3390    1.3250 H   0  0  0  0  0  0  0  0  0  0  0  0
   -3.9440   -2.1020    2.0740 H   0  0  0  0  0  0  0  0  0  0  0  0
   -0.7660   -2.7030    1.9120 H   0  0  0  0  0  0  0  0  0  0  0  0
   -0.2750   -1.0360    2.0470 H   0  0  0  0  0  0  0  0  0  0  0  0
    4.3410    1.4720   -1.7340 H   0  0  0  0  0  0  0  0  0  0  0  0
    3.3780    2.5090   -2.7720 H   0  0  0  0  0  0  0  0  0  0  0  0
    3.3120    2.9720    1.5400 H   0  0  0  0  0  0  0  0  0  0  0  0
    3.3810    1.3010    1.0380 H   0  0  0  0  0  0  0  0  0  0  0  0
    4.6800    2.3690    0.6540 H   0  0  0  0  0  0  0  0  0  0  0  0
   -5.0770   -3.2510    0.1960 H   0  0  0  0  0  0  0  0  0  0  0  0
   -4.9500   -1.5150   -0.0500 H   0  0  0  0  0  0  0  0  0  0  0  0
   -0.8960   -1.9120    3.9850 H   0  0  0  0  0  0  0  0  0  0  0  0
   -4.2970   -2.7210   -3.5060 H   0  0  0  0  0  0  0  0  0  0  0  0
   -5.5260   -3.3480   -2.3970 H   0  0  0  0  0  0  0  0  0  0  0  0
   -5.2440   -1.6090   -2.5140 H   0  0  0  0  0  0  0  0  0  0  0  0
   -2.5640   -4.2610   -2.4580 H   0  0  0  0  0  0  0  0  0  0  0  0
   -2.2880   -4.2870   -0.7190 H   0  0  0  0  0  0  0  0  0  0  0  0
   -3.8090   -4.8870   -1.3680 H   0  0  0  0  0  0  0  0  0  0  0  0
    5.7540    3.3650   -1.0620 H   0  0  0  0  0  0  0  0  0  0  0  0
    5.6310    3.2950   -2.8070 H   0  0  0  0  0  0  0  0  0  0  0  0
    4.0350    5.0810   -2.8920 H   0  0  0  0  0  0  0  0  0  0  0  0
    2.3600    7.1460   -0.2980 H   0  0  0  0  0  0  0  0  0  0  0  0
    3.7260    7.4740   -1.3370 H   0  0  0  0  0  0  0  0  0  0  0  0
    2.3010    6.6780   -2.0010 H   0  0  0  0  0  0  0  0  0  0  0  0
    4.9660    4.6770    0.8200 H   0  0  0  0  0  0  0  0  0  0  0  0
    4.9940    6.3980    0.5330 H   0  0  0  0  0  0  0  0  0  0  0  0
    3.6450    5.6860    1.4120 H   0  0  0  0  0  0  0  0  0  0  0  0
    5.3670    6.6950   -2.2010 H   0  0  0  0  0  0  0  0  0  0  0  0
  1  3  1  0  0  0  0
  1  4  1  0  0  0  0
  1  2  1  0  0  0  0
  1  5  1  0  0  0  0
  2  6  1  0  0  0  0
  2  7  2  0  0  0  0
  3  8  1  0  0  0  0
  3  9  1  0  0  0  0
  3 10  1  0  0  0  0
  4 36  1  0  0  0  0
  4 11  1  0  0  0  0
  4 37  1  0  0  0  0
  5 38  1  0  0  0  0
  5 39  1  0  0  0  0
  5 40  1  0  0  0  0
  6 12  1  0  0  0  0
  6 13  1  0  0  0  0
  6 33  1  0  0  0  0
  7 14  1  0  0  0  0
  7 41  1  0  0  0  0
  8 15  1  0  0  0  0
  8 14  1  0  0  0  0
  8 34  1  0  0  0  0
  9 16  1  0  0  0  0
  9 43  1  0  0  0  0
  9 42  1  0  0  0  0
 10 44  1  0  0  0  0
 10 45  1  0  0  0  0
 10 46  1  0  0  0  0
 11 48  1  0  0  0  0
 11 47  1  0  0  0  0
 11 12  1  0  0  0  0
 12 17  1  0  0  0  0
 12 18  1  0  0  0  0
 13 19  1  0  0  0  0
 13 49  1  0  0  0  0
 13 50  1  0  0  0  0
 14 51  1  0  0  0  0
 14 52  1  0  0  0  0
 15 20  1  0  0  0  0
 15 22  1  0  0  0  0
 15 21  1  0  0  0  0
 16 54  1  0  0  0  0
 16 20  1  0  0  0  0
 16 53  1  0  0  0  0
 17 55  1  0  0  0  0
 17 56  1  0  0  0  0
 17 23  1  0  0  0  0
 18 24  1  0  0  0  0
 18 57  1  0  0  0  0
 18 58  1  0  0  0  0
 19 23  1  0  0  0  0
 19 25  1  0  0  0  0
 19 26  1  0  0  0  0
 20 35  1  0  0  0  0
 20 27  1  0  0  0  0
 21 59  1  0  0  0  0
 21 28  1  0  0  0  0
 21 60  1  0  0  0  0
 22 62  1  0  0  0  0
 22 61  1  0  0  0  0
 22 63  1  0  0  0  0
 23 64  1  0  0  0  0
 23 65  1  0  0  0  0
 24 66  1  0  0  0  0
 25 69  1  0  0  0  0
 25 68  1  0  0  0  0
 25 67  1  0  0  0  0
 26 72  1  0  0  0  0
 26 71  1  0  0  0  0
 26 70  1  0  0  0  0
 27 31  1  0  0  0  0
 27 29  1  0  0  0  0
 27 30  1  0  0  0  0
 28 73  1  0  0  0  0
 28 29  1  0  0  0  0
 28 74  1  0  0  0  0
 29 75  1  0  0  0  0
 29 32  1  0  0  0  0
 30 76  1  0  0  0  0
 30 77  1  0  0  0  0
 30 78  1  0  0  0  0
 31 79  1  0  0  0  0
 31 81  1  0  0  0  0
 31 80  1  0  0  0  0
 32 82  1  0  0  0  0
M  END
