decoy-622
 OpenBabel06062114513D

 28 29  0  0  0  0  0  0  0  0999 V2000
   -0.0400    1.4170   -0.0530 C   0  0  0  0  0  0  0  0  0  0  0  0
    0.0230   -0.0100    0.0360 C   0  0  0  0  0  0  0  0  0  0  0  0
    1.1410    2.2050    0.0400 C   0  0  0  0  0  0  0  0  0  0  0  0
   -1.2860    2.0770   -0.2420 C   0  0  0  0  0  0  0  0  0  0  0  0
   -1.1590   -0.7970   -0.0570 C   0  0  0  0  0  0  0  0  0  0  0  0
    1.2680   -0.6700    0.2250 C   0  0  0  0  0  0  0  0  0  0  0  0
    2.3740    1.5200    0.0200 C   0  0  0  0  0  0  0  0  0  0  0  0
   -2.4460    1.2900   -0.1210 C   0  0  0  0  0  0  0  0  0  0  0  0
   -2.3920   -0.1120   -0.0370 C   0  0  0  0  0  0  0  0  0  0  0  0
    2.4280    0.1170    0.1040 C   0  0  0  0  0  0  0  0  0  0  0  0
    3.8680    2.4110   -0.0870 S   0  0  0  0  0  0  0  0  0  0  0  0
   -3.8860   -1.0040    0.0700 S   0  0  0  0  0  0  0  0  0  0  0  0
    3.6220    4.0810    0.0200 O   0  0  0  0  0  0  0  0  0  0  0  0
    4.9090    1.9310    1.1550 O   0  0  0  0  0  0  0  0  0  0  0  0
    4.6170    2.0630   -1.5620 O   0  0  0  0  0  0  0  0  0  0  0  0
   -4.6350   -0.6550    1.5450 O   0  0  0  0  0  0  0  0  0  0  0  0
   -4.9270   -0.5240   -1.1720 O   0  0  0  0  0  0  0  0  0  0  0  0
   -3.6390   -2.6730   -0.0370 O   0  0  0  0  0  0  0  0  0  0  0  0
    1.1420    2.9300   -0.6840 H   0  0  0  0  0  0  0  0  0  0  0  0
   -1.2900    2.4790   -1.1840 H   0  0  0  0  0  0  0  0  0  0  0  0
   -1.1170   -1.3230   -0.9340 H   0  0  0  0  0  0  0  0  0  0  0  0
    1.3460   -1.4850   -0.3910 H   0  0  0  0  0  0  0  0  0  0  0  0
   -3.3580    1.7580   -0.1110 H   0  0  0  0  0  0  0  0  0  0  0  0
    3.3400   -0.3510    0.0940 H   0  0  0  0  0  0  0  0  0  0  0  0
    1.0990    2.7310    0.9170 H   0  0  0  0  0  0  0  0  0  0  0  0
   -1.3640    2.8920    0.3740 H   0  0  0  0  0  0  0  0  0  0  0  0
   -1.1600   -1.5220    0.6670 H   0  0  0  0  0  0  0  0  0  0  0  0
    1.2720   -1.0720    1.1670 H   0  0  0  0  0  0  0  0  0  0  0  0
  1  2  2  0  0  0  0
  1  3  1  0  0  0  0
  1  4  1  0  0  0  0
  2  6  1  0  0  0  0
  2  5  1  0  0  0  0
  3 25  1  0  0  0  0
  3  7  1  0  0  0  0
  3 19  1  0  0  0  0
  4  8  1  0  0  0  0
  4 26  1  0  0  0  0
  4 20  1  0  0  0  0
  5  9  1  0  0  0  0
  5 27  1  0  0  0  0
  5 21  1  0  0  0  0
  6 28  1  0  0  0  0
  6 10  1  0  0  0  0
  6 22  1  0  0  0  0
  7 10  2  0  0  0  0
  7 11  1  0  0  0  0
  8 23  1  0  0  0  0
  8  9  2  0  0  0  0
  9 12  1  0  0  0  0
 10 24  1  0  0  0  0
 11 13  2  0  0  0  0
 11 14  2  0  0  0  0
 11 15  1  0  0  0  0
 12 16  2  0  0  0  0
 12 17  2  0  0  0  0
 12 18  1  0  0  0  0
M  END
