decoy-38
 OpenBabel06062114503D

 62 64  0  0  0  0  0  0  0  0999 V2000
   -0.0880    1.4710   -0.3440 C   0  0  0  0  0  0  0  0  0  0  0  0
    0.2730   -0.0450   -0.2160 C   0  0  0  0  0  0  0  0  0  0  0  0
    1.1790    2.3380   -0.5910 C   0  0  0  0  0  0  0  0  0  0  0  0
   -0.7130    1.9990    0.8470 O   0  0  0  0  0  0  0  0  0  0  0  0
    1.1330   -0.5320   -1.4190 C   0  0  0  0  0  0  0  0  0  0  0  0
    0.9620   -0.2410    1.0410 O   0  0  0  0  0  0  0  0  0  0  0  0
    2.0170    1.8370   -1.7940 C   0  0  0  0  0  0  0  0  0  0  0  0
   -2.0590    1.5850    1.1470 C   0  0  0  0  0  0  0  0  0  0  0  0
    2.3920    0.3430   -1.6390 C   0  0  0  0  0  0  0  0  0  0  0  0
    0.8400   -1.5110    1.7140 C   0  0  0  0  0  0  0  0  0  0  0  0
   -2.4880    2.2080    2.4910 C   0  0  0  0  0  0  0  0  0  0  0  0
   -0.5240   -1.6790    2.4210 C   0  0  0  0  0  0  0  0  0  0  0  0
   -3.6430    1.5150    2.9970 O   0  0  0  0  0  0  0  0  0  0  0  0
   -0.4870   -2.8040    3.3180 O   0  0  0  0  0  0  0  0  0  0  0  0
   -4.2780    2.1400    4.1270 C   0  0  0  0  0  0  0  0  0  0  0  0
   -1.7530   -3.2290    3.8660 C   0  0  0  0  0  0  0  0  0  0  0  0
   -5.3120    1.1720    4.7370 C   0  0  0  0  0  0  0  0  0  0  0  0
   -2.4300   -2.2020    4.8040 C   0  0  0  0  0  0  0  0  0  0  0  0
   -4.6310    0.1500    5.4930 O   0  0  0  0  0  0  0  0  0  0  0  0
   -3.5370   -2.8350    5.4710 O   0  0  0  0  0  0  0  0  0  0  0  0
   -5.3170   -1.0930    5.7780 C   0  0  0  0  0  0  0  0  0  0  0  0
   -4.2590   -2.0470    6.4430 C   0  0  0  0  0  0  0  0  0  0  0  0
   -6.6160   -0.9210    6.6400 C   0  0  0  0  0  0  0  0  0  0  0  0
   -4.9110   -3.0490    7.4360 C   0  0  0  0  0  0  0  0  0  0  0  0
   -6.3240   -0.9740    8.1590 C   0  0  0  0  0  0  0  0  0  0  0  0
   -5.6790   -2.3270    8.5810 C   0  0  0  0  0  0  0  0  0  0  0  0
   -0.7600    1.6090   -1.2000 H   0  0  0  0  0  0  0  0  0  0  0  0
   -0.6620   -0.6100   -0.2400 H   0  0  0  0  0  0  0  0  0  0  0  0
    0.8780    3.3730   -0.7770 H   0  0  0  0  0  0  0  0  0  0  0  0
    1.8070    2.3320    0.3050 H   0  0  0  0  0  0  0  0  0  0  0  0
    1.4400   -1.5680   -1.2610 H   0  0  0  0  0  0  0  0  0  0  0  0
    0.5220   -0.5070   -2.3270 H   0  0  0  0  0  0  0  0  0  0  0  0
    1.4470    1.9760   -2.7170 H   0  0  0  0  0  0  0  0  0  0  0  0
    2.9310    2.4330   -1.8720 H   0  0  0  0  0  0  0  0  0  0  0  0
   -2.7430    1.9120    0.3600 H   0  0  0  0  0  0  0  0  0  0  0  0
   -2.1200    0.5010    1.2320 H   0  0  0  0  0  0  0  0  0  0  0  0
    3.0730    0.2220   -0.7920 H   0  0  0  0  0  0  0  0  0  0  0  0
    2.9140    0.0060   -2.5390 H   0  0  0  0  0  0  0  0  0  0  0  0
    1.0140   -2.3440    1.0300 H   0  0  0  0  0  0  0  0  0  0  0  0
    1.6240   -1.5380    2.4730 H   0  0  0  0  0  0  0  0  0  0  0  0
   -1.6730    2.1090    3.2130 H   0  0  0  0  0  0  0  0  0  0  0  0
   -2.6960    3.2720    2.3350 H   0  0  0  0  0  0  0  0  0  0  0  0
   -0.7360   -0.7690    2.9880 H   0  0  0  0  0  0  0  0  0  0  0  0
   -1.3020   -1.8240    1.6690 H   0  0  0  0  0  0  0  0  0  0  0  0
   -3.5510    2.4140    4.8980 H   0  0  0  0  0  0  0  0  0  0  0  0
   -4.7900    3.0460    3.7910 H   0  0  0  0  0  0  0  0  0  0  0  0
   -2.4410   -3.5040    3.0620 H   0  0  0  0  0  0  0  0  0  0  0  0
   -1.5490   -4.1340    4.4430 H   0  0  0  0  0  0  0  0  0  0  0  0
   -5.9600    1.7410    5.4060 H   0  0  0  0  0  0  0  0  0  0  0  0
   -5.9210    0.7460    3.9340 H   0  0  0  0  0  0  0  0  0  0  0  0
   -1.6940   -1.8560    5.5340 H   0  0  0  0  0  0  0  0  0  0  0  0
   -2.7830   -1.3510    4.2180 H   0  0  0  0  0  0  0  0  0  0  0  0
   -5.6150   -1.5390    4.8230 H   0  0  0  0  0  0  0  0  0  0  0  0
   -3.5550   -1.4530    7.0380 H   0  0  0  0  0  0  0  0  0  0  0  0
   -7.1320    0.0090    6.4050 H   0  0  0  0  0  0  0  0  0  0  0  0
   -7.3110   -1.7320    6.3990 H   0  0  0  0  0  0  0  0  0  0  0  0
   -5.6040   -3.6900    6.8830 H   0  0  0  0  0  0  0  0  0  0  0  0
   -4.1420   -3.6950    7.8700 H   0  0  0  0  0  0  0  0  0  0  0  0
   -5.6470   -0.1530    8.4100 H   0  0  0  0  0  0  0  0  0  0  0  0
   -7.2520   -0.8190    8.7170 H   0  0  0  0  0  0  0  0  0  0  0  0
   -6.4590   -3.0000    8.9490 H   0  0  0  0  0  0  0  0  0  0  0  0
   -4.9940   -2.1400    9.4120 H   0  0  0  0  0  0  0  0  0  0  0  0
  1  2  1  0  0  0  0
  1  4  1  0  0  0  0
  1  3  1  0  0  0  0
  1 27  1  0  0  0  0
  2 28  1  0  0  0  0
  2  6  1  0  0  0  0
  2  5  1  0  0  0  0
  3 30  1  0  0  0  0
  3  7  1  0  0  0  0
  3 29  1  0  0  0  0
  4  8  1  0  0  0  0
  5 31  1  0  0  0  0
  5  9  1  0  0  0  0
  5 32  1  0  0  0  0
  6 10  1  0  0  0  0
  7  9  1  0  0  0  0
  7 33  1  0  0  0  0
  7 34  1  0  0  0  0
  8 36  1  0  0  0  0
  8 11  1  0  0  0  0
  8 35  1  0  0  0  0
  9 37  1  0  0  0  0
  9 38  1  0  0  0  0
 10 12  1  0  0  0  0
 10 40  1  0  0  0  0
 10 39  1  0  0  0  0
 11 13  1  0  0  0  0
 11 41  1  0  0  0  0
 11 42  1  0  0  0  0
 12 43  1  0  0  0  0
 12 14  1  0  0  0  0
 12 44  1  0  0  0  0
 13 15  1  0  0  0  0
 14 16  1  0  0  0  0
 15 17  1  0  0  0  0
 15 45  1  0  0  0  0
 15 46  1  0  0  0  0
 16 48  1  0  0  0  0
 16 18  1  0  0  0  0
 16 47  1  0  0  0  0
 17 49  1  0  0  0  0
 17 19  1  0  0  0  0
 17 50  1  0  0  0  0
 18 20  1  0  0  0  0
 18 51  1  0  0  0  0
 18 52  1  0  0  0  0
 19 21  1  0  0  0  0
 20 22  1  0  0  0  0
 21 22  1  0  0  0  0
 21 23  1  0  0  0  0
 21 53  1  0  0  0  0
 22 54  1  0  0  0  0
 22 24  1  0  0  0  0
 23 25  1  0  0  0  0
 23 55  1  0  0  0  0
 23 56  1  0  0  0  0
 24 58  1  0  0  0  0
 24 26  1  0  0  0  0
 24 57  1  0  0  0  0
 25 59  1  0  0  0  0
 25 26  1  0  0  0  0
 25 60  1  0  0  0  0
 26 61  1  0  0  0  0
 26 62  1  0  0  0  0
M  END
