decoy-137
 OpenBabel06062114503D

 43 45  0  0  0  0  0  0  0  0999 V2000
    1.2660    1.3580   -0.1510 C   0  0  0  0  0  0  0  0  0  0  0  0
    1.2740    0.0910    0.4720 C   0  0  0  0  0  0  0  0  0  0  0  0
    2.4830    2.0080   -0.4330 C   0  0  0  0  0  0  0  0  0  0  0  0
    0.0800    1.9090   -0.5540 O   0  0  0  0  0  0  0  0  0  0  0  0
    0.0910   -0.5250    0.7780 O   0  0  0  0  0  0  0  0  0  0  0  0
    2.4960   -0.4930    0.8530 C   0  0  0  0  0  0  0  0  0  0  0  0
    3.7180    1.4270   -0.0630 C   0  0  0  0  0  0  0  0  0  0  0  0
   -0.6080    2.6590    0.4640 C   0  0  0  0  0  0  0  0  0  0  0  0
   -0.4750   -1.3040   -0.2930 C   0  0  0  0  0  0  0  0  0  0  0  0
    3.7090    0.1670    0.5820 C   0  0  0  0  0  0  0  0  0  0  0  0
    4.9920    2.1260   -0.3630 C   0  0  0  0  0  0  0  0  0  0  0  0
   -2.0040    2.8680    0.0090 C   0  0  0  0  0  0  0  0  0  0  0  0
   -1.8920   -1.5810    0.0470 C   0  0  0  0  0  0  0  0  0  0  0  0
    5.1370    3.6050    0.5820 Cl  0  0  0  0  0  0  0  0  0  0  0  0
   -3.0950    2.2760    0.6900 C   0  0  0  0  0  0  0  0  0  0  0  0
   -2.2640    3.6440   -1.1440 C   0  0  0  0  0  0  0  0  0  0  0  0
   -2.9510   -1.0400   -0.7200 C   0  0  0  0  0  0  0  0  0  0  0  0
   -2.2060   -2.3740    1.1760 C   0  0  0  0  0  0  0  0  0  0  0  0
   -4.4120    2.4560    0.2270 C   0  0  0  0  0  0  0  0  0  0  0  0
   -3.5810    3.8260   -1.6060 C   0  0  0  0  0  0  0  0  0  0  0  0
   -4.2910   -1.2850   -0.3660 C   0  0  0  0  0  0  0  0  0  0  0  0
   -3.5460   -2.6200    1.5280 C   0  0  0  0  0  0  0  0  0  0  0  0
   -4.6550    3.2310   -0.9210 C   0  0  0  0  0  0  0  0  0  0  0  0
   -4.5890   -2.0750    0.7580 C   0  0  0  0  0  0  0  0  0  0  0  0
    2.4630    2.9130   -0.9110 H   0  0  0  0  0  0  0  0  0  0  0  0
    2.5050   -1.3990    1.3270 H   0  0  0  0  0  0  0  0  0  0  0  0
   -0.5980    2.1330    1.4250 H   0  0  0  0  0  0  0  0  0  0  0  0
   -0.1220    3.6280    0.6080 H   0  0  0  0  0  0  0  0  0  0  0  0
   -0.4130   -0.7740   -1.2500 H   0  0  0  0  0  0  0  0  0  0  0  0
    0.0680   -2.2470   -0.3960 H   0  0  0  0  0  0  0  0  0  0  0  0
    4.5860   -0.2770    0.8640 H   0  0  0  0  0  0  0  0  0  0  0  0
    5.8580    1.5020   -0.1340 H   0  0  0  0  0  0  0  0  0  0  0  0
    5.0330    2.3780   -1.4240 H   0  0  0  0  0  0  0  0  0  0  0  0
   -2.9400    1.7010    1.5210 H   0  0  0  0  0  0  0  0  0  0  0  0
   -1.4930    4.0790   -1.6580 H   0  0  0  0  0  0  0  0  0  0  0  0
   -2.7570   -0.4540   -1.5360 H   0  0  0  0  0  0  0  0  0  0  0  0
   -1.4600   -2.7730    1.7500 H   0  0  0  0  0  0  0  0  0  0  0  0
   -5.1920    2.0200    0.7230 H   0  0  0  0  0  0  0  0  0  0  0  0
   -3.7570    4.3880   -2.4420 H   0  0  0  0  0  0  0  0  0  0  0  0
   -5.0490   -0.8850   -0.9240 H   0  0  0  0  0  0  0  0  0  0  0  0
   -3.7630   -3.1930    2.3470 H   0  0  0  0  0  0  0  0  0  0  0  0
   -5.6120    3.3600   -1.2580 H   0  0  0  0  0  0  0  0  0  0  0  0
   -5.5620   -2.2510    1.0160 H   0  0  0  0  0  0  0  0  0  0  0  0
  1  2  2  0  0  0  0
  1  3  1  0  0  0  0
  1  4  1  0  0  0  0
  2  5  1  0  0  0  0
  2  6  1  0  0  0  0
  3  7  2  0  0  0  0
  3 25  1  0  0  0  0
  4  8  1  0  0  0  0
  5  9  1  0  0  0  0
  6 26  1  0  0  0  0
  6 10  2  0  0  0  0
  7 10  1  0  0  0  0
  7 11  1  0  0  0  0
  8 28  1  0  0  0  0
  8 27  1  0  0  0  0
  8 12  1  0  0  0  0
  9 13  1  0  0  0  0
  9 29  1  0  0  0  0
  9 30  1  0  0  0  0
 10 31  1  0  0  0  0
 11 32  1  0  0  0  0
 11 14  1  0  0  0  0
 11 33  1  0  0  0  0
 12 15  2  0  0  0  0
 12 16  1  0  0  0  0
 13 18  2  0  0  0  0
 13 17  1  0  0  0  0
 15 34  1  0  0  0  0
 15 19  1  0  0  0  0
 16 20  2  0  0  0  0
 16 35  1  0  0  0  0
 17 21  2  0  0  0  0
 17 36  1  0  0  0  0
 18 22  1  0  0  0  0
 18 37  1  0  0  0  0
 19 38  1  0  0  0  0
 19 23  2  0  0  0  0
 20 23  1  0  0  0  0
 20 39  1  0  0  0  0
 21 24  1  0  0  0  0
 21 40  1  0  0  0  0
 22 41  1  0  0  0  0
 22 24  2  0  0  0  0
 23 42  1  0  0  0  0
 24 43  1  0  0  0  0
M  END
