decoy-9
 OpenBabel06062114503D

 14 13  0  0  0  0  0  0  0  0999 V2000
    0.0350    1.5190    0.0090 C   0  0  0  0  0  0  0  0  0  0  0  0
   -0.0360   -0.0470    0.0010 C   0  0  0  0  0  0  0  0  0  0  0  0
    1.4750    2.1220   -0.0010 C   0  0  0  0  0  0  0  0  0  0  0  0
   -0.6430    2.0110   -1.0870 F   0  0  0  0  0  0  0  0  0  0  0  0
   -0.6230    2.0000    1.1210 F   0  0  0  0  0  0  0  0  0  0  0  0
   -1.4880   -0.6000    0.0110 C   0  0  0  0  0  0  0  0  0  0  0  0
    0.5980   -0.5460   -1.1150 F   0  0  0  0  0  0  0  0  0  0  0  0
    0.6170   -0.5580    1.1010 F   0  0  0  0  0  0  0  0  0  0  0  0
    2.1810    1.7520   -1.1210 F   0  0  0  0  0  0  0  0  0  0  0  0
    1.4280    3.4970    0.0070 F   0  0  0  0  0  0  0  0  0  0  0  0
    2.2000    1.7400    1.1030 F   0  0  0  0  0  0  0  0  0  0  0  0
   -1.5340   -2.7240    0.0010 I   0  0  0  0  0  0  0  0  0  0  0  0
   -2.0180   -0.2580    0.9020 H   0  0  0  0  0  0  0  0  0  0  0  0
   -2.0330   -0.2490   -0.8670 H   0  0  0  0  0  0  0  0  0  0  0  0
  1  5  1  0  0  0  0
  1  2  1  0  0  0  0
  1  3  1  0  0  0  0
  1  4  1  0  0  0  0
  2  6  1  0  0  0  0
  2  8  1  0  0  0  0
  2  7  1  0  0  0  0
  3 10  1  0  0  0  0
  3 11  1  0  0  0  0
  3  9  1  0  0  0  0
  6 13  1  0  0  0  0
  6 12  1  0  0  0  0
  6 14  1  0  0  0  0
M  END
