decoy-55
 OpenBabel06062114503D

 54 53  0  0  0  0  0  0  0  0999 V2000
   -0.0830    1.8110    0.2040 P   0  0  0  0  0  0  0  0  0  0  0  0
   -0.1860    0.5870    1.2890 *   0  0  0  0  0  0  0  0  0  0  0  0
    1.1680    1.4060   -0.7770 *   0  0  0  0  0  0  0  0  0  0  0  0
   -1.2680    1.6840   -0.8040 O   0  0  0  0  0  0  0  0  0  0  0  0
    0.7690    0.7110    2.4730 C   0  0  0  0  0  0  0  0  0  0  0  0
   -1.5920    0.1350    1.6620 C   0  0  0  0  0  0  0  0  0  0  0  0
    0.9490    0.3480   -1.8710 C   0  0  0  0  0  0  0  0  0  0  0  0
    1.8990    2.6640   -1.2460 C   0  0  0  0  0  0  0  0  0  0  0  0
   -2.2680    2.7140   -0.7060 C   0  0  0  0  0  0  0  0  0  0  0  0
    2.1690    0.1130    2.1590 C   0  0  0  0  0  0  0  0  0  0  0  0
    0.9170    2.1020    3.1640 C   0  0  0  0  0  0  0  0  0  0  0  0
   -1.6230   -1.3720    2.0550 C   0  0  0  0  0  0  0  0  0  0  0  0
   -2.3280    0.9870    2.7360 C   0  0  0  0  0  0  0  0  0  0  0  0
    2.2510   -0.0230   -2.6520 C   0  0  0  0  0  0  0  0  0  0  0  0
    0.3290   -1.0010   -1.3890 C   0  0  0  0  0  0  0  0  0  0  0  0
    1.1640    3.5200   -2.3220 C   0  0  0  0  0  0  0  0  0  0  0  0
    2.4410    3.5980   -0.1210 C   0  0  0  0  0  0  0  0  0  0  0  0
   -3.2830    2.4990   -1.8520 C   0  0  0  0  0  0  0  0  0  0  0  0
   -4.2860    3.4310   -1.8480 C   0  0  0  0  0  0  0  0  0  0  0  0
   -5.1270    4.2130   -1.8450 N   0  0  0  0  0  0  0  0  0  0  0  0
    0.4030    0.0620    3.2720 H   0  0  0  0  0  0  0  0  0  0  0  0
   -2.2300    0.1630    0.7760 H   0  0  0  0  0  0  0  0  0  0  0  0
    0.2500    0.7440   -2.6130 H   0  0  0  0  0  0  0  0  0  0  0  0
    2.8260    2.3350   -1.7170 H   0  0  0  0  0  0  0  0  0  0  0  0
   -2.7940    2.6550    0.2500 H   0  0  0  0  0  0  0  0  0  0  0  0
   -1.8260    3.7120   -0.8030 H   0  0  0  0  0  0  0  0  0  0  0  0
    2.7290   -0.0480    3.0830 H   0  0  0  0  0  0  0  0  0  0  0  0
    2.0650   -0.8500    1.6560 H   0  0  0  0  0  0  0  0  0  0  0  0
    2.7560    0.7770    1.5280 H   0  0  0  0  0  0  0  0  0  0  0  0
    1.4670    2.0030    4.1020 H   0  0  0  0  0  0  0  0  0  0  0  0
    1.4600    2.8010    2.5310 H   0  0  0  0  0  0  0  0  0  0  0  0
   -0.0560    2.5330    3.3890 H   0  0  0  0  0  0  0  0  0  0  0  0
   -2.6540   -1.7330    2.0890 H   0  0  0  0  0  0  0  0  0  0  0  0
   -1.0820   -1.9670    1.3170 H   0  0  0  0  0  0  0  0  0  0  0  0
   -1.1770   -1.5490    3.0340 H   0  0  0  0  0  0  0  0  0  0  0  0
   -3.3820    0.7010    2.7870 H   0  0  0  0  0  0  0  0  0  0  0  0
   -1.8900    0.8400    3.7240 H   0  0  0  0  0  0  0  0  0  0  0  0
   -2.2770    2.0460    2.4870 H   0  0  0  0  0  0  0  0  0  0  0  0
    2.1090   -0.8910   -3.3000 H   0  0  0  0  0  0  0  0  0  0  0  0
    2.5610    0.7910   -3.3080 H   0  0  0  0  0  0  0  0  0  0  0  0
    3.0590   -0.2450   -1.9530 H   0  0  0  0  0  0  0  0  0  0  0  0
    0.2300   -1.7090   -2.2140 H   0  0  0  0  0  0  0  0  0  0  0  0
    0.9560   -1.4570   -0.6200 H   0  0  0  0  0  0  0  0  0  0  0  0
   -0.6750   -0.8550   -0.9970 H   0  0  0  0  0  0  0  0  0  0  0  0
    1.8210    4.3080   -2.6960 H   0  0  0  0  0  0  0  0  0  0  0  0
    0.8650    2.9120   -3.1750 H   0  0  0  0  0  0  0  0  0  0  0  0
    0.2770    3.9920   -1.9030 H   0  0  0  0  0  0  0  0  0  0  0  0
    3.1170    4.3490   -0.5370 H   0  0  0  0  0  0  0  0  0  0  0  0
    1.6290    4.1220    0.3860 H   0  0  0  0  0  0  0  0  0  0  0  0
    3.0020    3.0180    0.6110 H   0  0  0  0  0  0  0  0  0  0  0  0
   -2.7700    2.5520   -2.8140 H   0  0  0  0  0  0  0  0  0  0  0  0
   -3.7360    1.5090   -1.7620 H   0  0  0  0  0  0  0  0  0  0  0  0
    0.1750   -0.2150    0.7810 H   0  0  0  0  0  0  0  0  0  0  0  0
    1.8370    0.9590   -0.1550 H   0  0  0  0  0  0  0  0  0  0  0  0
  1  2  1  0  0  0  0
  1  3  1  0  0  0  0
  1  4  1  0  0  0  0
  2  6  1  0  0  0  0
  2  5  1  0  0  0  0
  2 53  1  0  0  0  0
  3 54  1  0  0  0  0
  3  7  1  0  0  0  0
  3  8  1  0  0  0  0
  4  9  1  0  0  0  0
  5 11  1  0  0  0  0
  5 21  1  0  0  0  0
  5 10  1  0  0  0  0
  6 12  1  0  0  0  0
  6 13  1  0  0  0  0
  6 22  1  0  0  0  0
  7 15  1  0  0  0  0
  7 14  1  0  0  0  0
  7 23  1  0  0  0  0
  8 17  1  0  0  0  0
  8 16  1  0  0  0  0
  8 24  1  0  0  0  0
  9 25  1  0  0  0  0
  9 18  1  0  0  0  0
  9 26  1  0  0  0  0
 10 27  1  0  0  0  0
 10 28  1  0  0  0  0
 10 29  1  0  0  0  0
 11 32  1  0  0  0  0
 11 30  1  0  0  0  0
 11 31  1  0  0  0  0
 12 33  1  0  0  0  0
 12 35  1  0  0  0  0
 12 34  1  0  0  0  0
 13 36  1  0  0  0  0
 13 37  1  0  0  0  0
 13 38  1  0  0  0  0
 14 41  1  0  0  0  0
 14 39  1  0  0  0  0
 14 40  1  0  0  0  0
 15 44  1  0  0  0  0
 15 43  1  0  0  0  0
 15 42  1  0  0  0  0
 16 47  1  0  0  0  0
 16 45  1  0  0  0  0
 16 46  1  0  0  0  0
 17 49  1  0  0  0  0
 17 50  1  0  0  0  0
 17 48  1  0  0  0  0
 18 19  1  0  0  0  0
 18 52  1  0  0  0  0
 18 51  1  0  0  0  0
 19 20  3  0  0  0  0
M  END
