decoy-706
 OpenBabel06062114513D

 44 46  0  0  0  0  0  0  0  0999 V2000
   -0.1150    1.9080    0.3730 P   0  0  0  0  0  0  0  0  0  0  0  0
   -0.1370    0.2650    0.6970 C   0  0  0  0  0  0  0  0  0  0  0  0
    1.4480    2.4150    0.0490 C   0  0  0  0  0  0  0  0  0  0  0  0
   -1.1180    2.2580   -0.9220 C   0  0  0  0  0  0  0  0  0  0  0  0
   -0.5980    2.6140    1.5340 O   0  0  0  0  0  0  0  0  0  0  0  0
    0.7450   -0.1530    1.8220 C   0  0  0  0  0  0  0  0  0  0  0  0
    1.5720    3.8630   -0.2760 C   0  0  0  0  0  0  0  0  0  0  0  0
   -2.5320    1.8230   -0.7420 C   0  0  0  0  0  0  0  0  0  0  0  0
    0.3710    0.0930    3.1650 C   0  0  0  0  0  0  0  0  0  0  0  0
    1.9680   -0.8230    1.5740 C   0  0  0  0  0  0  0  0  0  0  0  0
    1.4900    4.8430    0.7430 C   0  0  0  0  0  0  0  0  0  0  0  0
    1.7930    4.2920   -1.6080 C   0  0  0  0  0  0  0  0  0  0  0  0
   -3.4090    2.5460    0.1030 C   0  0  0  0  0  0  0  0  0  0  0  0
   -3.0350    0.6900   -1.4250 C   0  0  0  0  0  0  0  0  0  0  0  0
    1.2020   -0.3030    4.2290 C   0  0  0  0  0  0  0  0  0  0  0  0
    2.8000   -1.2190    2.6380 C   0  0  0  0  0  0  0  0  0  0  0  0
    1.6090    6.2120    0.4380 C   0  0  0  0  0  0  0  0  0  0  0  0
    1.9100    5.6610   -1.9130 C   0  0  0  0  0  0  0  0  0  0  0  0
   -4.7450    2.1390    0.2720 C   0  0  0  0  0  0  0  0  0  0  0  0
   -4.3710    0.2810   -1.2550 C   0  0  0  0  0  0  0  0  0  0  0  0
    2.4180   -0.9580    3.9650 C   0  0  0  0  0  0  0  0  0  0  0  0
    1.8170    6.6210   -0.8910 C   0  0  0  0  0  0  0  0  0  0  0  0
   -5.2260    1.0040   -0.4050 C   0  0  0  0  0  0  0  0  0  0  0  0
   -1.1590   -0.0430    0.9270 H   0  0  0  0  0  0  0  0  0  0  0  0
    0.1470   -0.2550   -0.2210 H   0  0  0  0  0  0  0  0  0  0  0  0
    2.0830    2.1990    0.9110 H   0  0  0  0  0  0  0  0  0  0  0  0
    1.8260    1.8080   -0.7770 H   0  0  0  0  0  0  0  0  0  0  0  0
   -1.1080    3.3340   -1.1050 H   0  0  0  0  0  0  0  0  0  0  0  0
   -0.6870    1.7860   -1.8090 H   0  0  0  0  0  0  0  0  0  0  0  0
   -0.5140    0.5600    3.3780 H   0  0  0  0  0  0  0  0  0  0  0  0
    2.2670   -1.0190    0.6160 H   0  0  0  0  0  0  0  0  0  0  0  0
    1.3480    4.5660    1.7170 H   0  0  0  0  0  0  0  0  0  0  0  0
    1.8590    3.6100   -2.3670 H   0  0  0  0  0  0  0  0  0  0  0  0
   -3.0800    3.3790    0.5970 H   0  0  0  0  0  0  0  0  0  0  0  0
   -2.4290    0.1470   -2.0450 H   0  0  0  0  0  0  0  0  0  0  0  0
    0.9210   -0.1170    5.1940 H   0  0  0  0  0  0  0  0  0  0  0  0
    3.6840   -1.6960    2.4460 H   0  0  0  0  0  0  0  0  0  0  0  0
    1.5460    6.9100    1.1830 H   0  0  0  0  0  0  0  0  0  0  0  0
    2.0640    5.9570   -2.8800 H   0  0  0  0  0  0  0  0  0  0  0  0
   -5.3670    2.6680    0.8870 H   0  0  0  0  0  0  0  0  0  0  0  0
   -4.7210   -0.5430   -1.7490 H   0  0  0  0  0  0  0  0  0  0  0  0
    3.0230   -1.2460    4.7380 H   0  0  0  0  0  0  0  0  0  0  0  0
    1.9040    7.6150   -1.1130 H   0  0  0  0  0  0  0  0  0  0  0  0
   -6.1960    0.7080   -0.2820 H   0  0  0  0  0  0  0  0  0  0  0  0
  1  2  1  0  0  0  0
  1  5  2  0  0  0  0
  1  3  1  0  0  0  0
  1  4  1  0  0  0  0
  2 24  1  0  0  0  0
  2  6  1  0  0  0  0
  2 25  1  0  0  0  0
  3 26  1  0  0  0  0
  3  7  1  0  0  0  0
  3 27  1  0  0  0  0
  4  8  1  0  0  0  0
  4 28  1  0  0  0  0
  4 29  1  0  0  0  0
  6  9  2  0  0  0  0
  6 10  1  0  0  0  0
  7 11  2  0  0  0  0
  7 12  1  0  0  0  0
  8 13  2  0  0  0  0
  8 14  1  0  0  0  0
  9 30  1  0  0  0  0
  9 15  1  0  0  0  0
 10 16  2  0  0  0  0
 10 31  1  0  0  0  0
 11 32  1  0  0  0  0
 11 17  1  0  0  0  0
 12 18  2  0  0  0  0
 12 33  1  0  0  0  0
 13 19  1  0  0  0  0
 13 34  1  0  0  0  0
 14 20  2  0  0  0  0
 14 35  1  0  0  0  0
 15 36  1  0  0  0  0
 15 21  2  0  0  0  0
 16 21  1  0  0  0  0
 16 37  1  0  0  0  0
 17 38  1  0  0  0  0
 17 22  2  0  0  0  0
 18 22  1  0  0  0  0
 18 39  1  0  0  0  0
 19 40  1  0  0  0  0
 19 23  2  0  0  0  0
 20 23  1  0  0  0  0
 20 41  1  0  0  0  0
 21 42  1  0  0  0  0
 22 43  1  0  0  0  0
 23 44  1  0  0  0  0
M  END
