decoy-224
 OpenBabel06062114513D

 20 20  0  0  0  0  0  0  0  0999 V2000
   -0.0480    1.4990   -0.0030 C   0  0  0  0  0  0  0  0  0  0  0  0
   -0.0530    0.0060   -0.0010 C   0  0  0  0  0  0  0  0  0  0  0  0
    1.1720    2.2190    0.0130 C   0  0  0  0  0  0  0  0  0  0  0  0
   -1.2600    2.2340   -0.0170 C   0  0  0  0  0  0  0  0  0  0  0  0
   -0.7090   -0.6070    1.2710 C   0  0  0  0  0  0  0  0  0  0  0  0
   -0.9380   -0.6140   -1.6070 Br  0  0  0  0  0  0  0  0  0  0  0  0
    1.1800    3.6270    0.0180 C   0  0  0  0  0  0  0  0  0  0  0  0
   -1.2520    3.6410   -0.0120 C   0  0  0  0  0  0  0  0  0  0  0  0
   -0.6680   -2.0830    1.2780 C   0  0  0  0  0  0  0  0  0  0  0  0
    0.1740    0.0080    2.8770 Br  0  0  0  0  0  0  0  0  0  0  0  0
   -0.0320    4.3380    0.0060 C   0  0  0  0  0  0  0  0  0  0  0  0
   -1.8100   -2.8050    1.3000 O   0  0  0  0  0  0  0  0  0  0  0  0
    0.5120   -2.7440    1.2630 O   0  0  0  0  0  0  0  0  0  0  0  0
    0.9730   -0.3680   -0.0580 H   0  0  0  0  0  0  0  0  0  0  0  0
    2.0670    1.7250    0.0250 H   0  0  0  0  0  0  0  0  0  0  0  0
   -2.1590    1.7480   -0.0340 H   0  0  0  0  0  0  0  0  0  0  0  0
   -1.7520   -0.2880    1.3290 H   0  0  0  0  0  0  0  0  0  0  0  0
    2.0690    4.1330    0.0320 H   0  0  0  0  0  0  0  0  0  0  0  0
   -2.1350    4.1570   -0.0220 H   0  0  0  0  0  0  0  0  0  0  0  0
   -0.0260    5.3600    0.0100 H   0  0  0  0  0  0  0  0  0  0  0  0
  1  2  1  0  0  0  0
  1  3  2  0  0  0  0
  1  4  1  0  0  0  0
  2 14  1  0  0  0  0
  2  5  1  0  0  0  0
  2  6  1  0  0  0  0
  3  7  1  0  0  0  0
  3 15  1  0  0  0  0
  4  8  2  0  0  0  0
  4 16  1  0  0  0  0
  5  9  1  0  0  0  0
  5 17  1  0  0  0  0
  5 10  1  0  0  0  0
  7 18  1  0  0  0  0
  7 11  2  0  0  0  0
  8 11  1  0  0  0  0
  8 19  1  0  0  0  0
  9 12  1  0  0  0  0
  9 13  2  0  0  0  0
 11 20  1  0  0  0  0
M  END
