decoy-949
 OpenBabel06062114513D

 62 63  0  0  0  0  0  0  0  0999 V2000
   -0.0270    1.3740   -0.1720 C   0  0  0  0  0  0  0  0  0  0  0  0
   -0.1310    0.0840   -0.7180 C   0  0  0  0  0  0  0  0  0  0  0  0
    1.1570    2.0940    0.1250 C   0  0  0  0  0  0  0  0  0  0  0  0
   -1.2280    1.8500    0.1950 N   0  0  0  0  0  0  0  0  0  0  0  0
   -1.7780   -0.3800   -1.0100 S   0  0  0  0  0  0  0  0  0  0  0  0
    0.9660   -0.9020   -0.8820 C   0  0  0  0  0  0  0  0  0  0  0  0
    2.1780    2.2510   -0.8430 C   0  0  0  0  0  0  0  0  0  0  0  0
    1.3280    2.7010    1.3930 C   0  0  0  0  0  0  0  0  0  0  0  0
   -2.2340    1.0190   -0.1020 C   0  0  0  0  0  0  0  0  0  0  0  0
    1.5890   -1.3460    0.4690 C   0  0  0  0  0  0  0  0  0  0  0  0
    3.3500    2.9690   -0.5410 C   0  0  0  0  0  0  0  0  0  0  0  0
    2.5010    3.4180    1.6940 C   0  0  0  0  0  0  0  0  0  0  0  0
   -3.5020    1.2630    0.2600 N   0  0  0  0  0  0  0  0  0  0  0  0
    2.7110   -2.4020    0.2890 C   0  0  0  0  0  0  0  0  0  0  0  0
    3.5140    3.5500    0.7290 C   0  0  0  0  0  0  0  0  0  0  0  0
    3.3400   -2.8400    1.6390 C   0  0  0  0  0  0  0  0  0  0  0  0
    4.4620   -3.8960    1.4590 C   0  0  0  0  0  0  0  0  0  0  0  0
    5.0910   -4.3340    2.8090 C   0  0  0  0  0  0  0  0  0  0  0  0
    6.2140   -5.3890    2.6290 C   0  0  0  0  0  0  0  0  0  0  0  0
    6.8430   -5.8270    3.9780 C   0  0  0  0  0  0  0  0  0  0  0  0
    7.9660   -6.8830    3.7990 C   0  0  0  0  0  0  0  0  0  0  0  0
    8.5950   -7.3210    5.1480 C   0  0  0  0  0  0  0  0  0  0  0  0
    9.7180   -8.3770    4.9690 C   0  0  0  0  0  0  0  0  0  0  0  0
   10.3460   -8.8150    6.3180 C   0  0  0  0  0  0  0  0  0  0  0  0
   11.4690   -9.8700    6.1380 C   0  0  0  0  0  0  0  0  0  0  0  0
   12.0970  -10.3080    7.4800 C   0  0  0  0  0  0  0  0  0  0  0  0
    0.5790   -1.7900   -1.3890 H   0  0  0  0  0  0  0  0  0  0  0  0
    1.7390   -0.4820   -1.5270 H   0  0  0  0  0  0  0  0  0  0  0  0
    2.0680    1.8660   -1.7830 H   0  0  0  0  0  0  0  0  0  0  0  0
    0.6070    2.6110    2.1130 H   0  0  0  0  0  0  0  0  0  0  0  0
    2.0070   -0.4760    0.9810 H   0  0  0  0  0  0  0  0  0  0  0  0
    0.8010   -1.7660    1.1010 H   0  0  0  0  0  0  0  0  0  0  0  0
    4.0800    3.0770   -1.2490 H   0  0  0  0  0  0  0  0  0  0  0  0
    2.6170    3.8440    2.6170 H   0  0  0  0  0  0  0  0  0  0  0  0
   -3.7180    2.0630    0.7630 H   0  0  0  0  0  0  0  0  0  0  0  0
   -4.2040    0.6380    0.0190 H   0  0  0  0  0  0  0  0  0  0  0  0
    2.2960   -3.2810   -0.2120 H   0  0  0  0  0  0  0  0  0  0  0  0
    3.4940   -1.9830   -0.3490 H   0  0  0  0  0  0  0  0  0  0  0  0
    4.3650    4.0720    0.9470 H   0  0  0  0  0  0  0  0  0  0  0  0
    3.7550   -1.9610    2.1400 H   0  0  0  0  0  0  0  0  0  0  0  0
    2.5560   -3.2580    2.2770 H   0  0  0  0  0  0  0  0  0  0  0  0
    4.0470   -4.7750    0.9580 H   0  0  0  0  0  0  0  0  0  0  0  0
    5.2460   -3.4770    0.8210 H   0  0  0  0  0  0  0  0  0  0  0  0
    5.5060   -3.4540    3.3100 H   0  0  0  0  0  0  0  0  0  0  0  0
    4.3080   -4.7520    3.4470 H   0  0  0  0  0  0  0  0  0  0  0  0
    5.7990   -6.2690    2.1280 H   0  0  0  0  0  0  0  0  0  0  0  0
    6.9970   -4.9710    1.9910 H   0  0  0  0  0  0  0  0  0  0  0  0
    7.2580   -4.9480    4.4800 H   0  0  0  0  0  0  0  0  0  0  0  0
    6.0600   -6.2460    4.6170 H   0  0  0  0  0  0  0  0  0  0  0  0
    7.5510   -7.7620    3.2980 H   0  0  0  0  0  0  0  0  0  0  0  0
    8.7490   -6.4640    3.1610 H   0  0  0  0  0  0  0  0  0  0  0  0
    9.0090   -6.4420    5.6500 H   0  0  0  0  0  0  0  0  0  0  0  0
    7.8110   -7.7400    5.7870 H   0  0  0  0  0  0  0  0  0  0  0  0
    9.3030   -9.2560    4.4680 H   0  0  0  0  0  0  0  0  0  0  0  0
   10.5010   -7.9580    4.3310 H   0  0  0  0  0  0  0  0  0  0  0  0
   10.7620   -7.9360    6.8200 H   0  0  0  0  0  0  0  0  0  0  0  0
    9.5630   -9.2340    6.9570 H   0  0  0  0  0  0  0  0  0  0  0  0
   11.0600  -10.7530    5.6400 H   0  0  0  0  0  0  0  0  0  0  0  0
   12.2570   -9.4560    5.5030 H   0  0  0  0  0  0  0  0  0  0  0  0
   12.8780  -11.0490    7.2970 H   0  0  0  0  0  0  0  0  0  0  0  0
   12.5410   -9.4510    7.9900 H   0  0  0  0  0  0  0  0  0  0  0  0
   11.3390  -10.7540    8.1270 H   0  0  0  0  0  0  0  0  0  0  0  0
  1  3  1  0  0  0  0
  1  4  1  0  0  0  0
  1  2  2  0  0  0  0
  2  5  1  0  0  0  0
  2  6  1  0  0  0  0
  3  8  2  0  0  0  0
  3  7  1  0  0  0  0
  4  9  1  0  0  0  0
  5  9  1  0  0  0  0
  6 10  1  0  0  0  0
  6 27  1  0  0  0  0
  6 28  1  0  0  0  0
  7 11  2  0  0  0  0
  7 29  1  0  0  0  0
  8 12  1  0  0  0  0
  8 30  1  0  0  0  0
  9 13  1  0  0  0  0
 10 31  1  0  0  0  0
 10 32  1  0  0  0  0
 10 14  1  0  0  0  0
 11 15  1  0  0  0  0
 11 33  1  0  0  0  0
 12 34  1  0  0  0  0
 12 15  2  0  0  0  0
 13 35  1  0  0  0  0
 13 36  1  0  0  0  0
 14 16  1  0  0  0  0
 14 37  1  0  0  0  0
 14 38  1  0  0  0  0
 15 39  1  0  0  0  0
 16 40  1  0  0  0  0
 16 41  1  0  0  0  0
 16 17  1  0  0  0  0
 17 18  1  0  0  0  0
 17 42  1  0  0  0  0
 17 43  1  0  0  0  0
 18 44  1  0  0  0  0
 18 45  1  0  0  0  0
 18 19  1  0  0  0  0
 19 20  1  0  0  0  0
 19 46  1  0  0  0  0
 19 47  1  0  0  0  0
 20 48  1  0  0  0  0
 20 49  1  0  0  0  0
 20 21  1  0  0  0  0
 21 22  1  0  0  0  0
 21 50  1  0  0  0  0
 21 51  1  0  0  0  0
 22 52  1  0  0  0  0
 22 53  1  0  0  0  0
 22 23  1  0  0  0  0
 23 24  1  0  0  0  0
 23 54  1  0  0  0  0
 23 55  1  0  0  0  0
 24 56  1  0  0  0  0
 24 57  1  0  0  0  0
 24 25  1  0  0  0  0
 25 26  1  0  0  0  0
 25 58  1  0  0  0  0
 25 59  1  0  0  0  0
 26 61  1  0  0  0  0
 26 62  1  0  0  0  0
 26 60  1  0  0  0  0
M  END
