decoy-633
 OpenBabel06062114513D

 71 70  0  0  0  0  0  0  0  0999 V2000
    0.7290    0.9550   -0.0010 C   0  0  0  0  0  0  0  0  0  0  0  0
    0.7800   -0.5730   -0.0100 *   0  0  0  0  0  0  0  0  0  0  0  0
    2.0510    1.7860   -0.0090 C   0  0  0  0  0  0  0  0  0  0  0  0
   -0.6640   -1.0760    0.0010 C   0  0  0  0  0  0  0  0  0  0  0  0
    1.4890   -1.0620   -1.2510 C   0  0  0  0  0  0  0  0  0  0  0  0
    1.5150   -1.0760    1.2090 C   0  0  0  0  0  0  0  0  0  0  0  0
    1.7960    3.3180    0.0020 C   0  0  0  0  0  0  0  0  0  0  0  0
   -0.9640   -2.6080   -0.0050 C   0  0  0  0  0  0  0  0  0  0  0  0
    3.1090    4.1450   -0.0060 C   0  0  0  0  0  0  0  0  0  0  0  0
   -2.4860   -2.9210    0.0090 C   0  0  0  0  0  0  0  0  0  0  0  0
    2.8520    5.6750    0.0050 C   0  0  0  0  0  0  0  0  0  0  0  0
   -2.7850   -4.4440    0.0030 C   0  0  0  0  0  0  0  0  0  0  0  0
    4.1650    6.5010   -0.0040 C   0  0  0  0  0  0  0  0  0  0  0  0
   -4.3050   -4.7540    0.0170 C   0  0  0  0  0  0  0  0  0  0  0  0
    3.9080    8.0320    0.0080 C   0  0  0  0  0  0  0  0  0  0  0  0
   -4.6040   -6.2770    0.0100 C   0  0  0  0  0  0  0  0  0  0  0  0
    5.2210    8.8580   -0.0010 C   0  0  0  0  0  0  0  0  0  0  0  0
   -6.1240   -6.5870    0.0240 C   0  0  0  0  0  0  0  0  0  0  0  0
    4.9620   10.3880    0.0100 C   0  0  0  0  0  0  0  0  0  0  0  0
   -6.4230   -8.1090    0.0180 C   0  0  0  0  0  0  0  0  0  0  0  0
    6.2680   11.2130    0.0020 C   0  0  0  0  0  0  0  0  0  0  0  0
   -7.9430   -8.4180    0.0320 C   0  0  0  0  0  0  0  0  0  0  0  0
   -8.2440   -9.9330    0.0250 C   0  0  0  0  0  0  0  0  0  0  0  0
    0.1530    1.2940   -0.8690 H   0  0  0  0  0  0  0  0  0  0  0  0
    0.1710    1.2830    0.8830 H   0  0  0  0  0  0  0  0  0  0  0  0
    2.6500    1.5360    0.8680 H   0  0  0  0  0  0  0  0  0  0  0  0
    2.6320    1.5460   -0.9020 H   0  0  0  0  0  0  0  0  0  0  0  0
   -1.1700   -0.6720    0.8850 H   0  0  0  0  0  0  0  0  0  0  0  0
   -1.1890   -0.6610   -0.8670 H   0  0  0  0  0  0  0  0  0  0  0  0
    2.5230   -0.7140   -1.2910 H   0  0  0  0  0  0  0  0  0  0  0  0
    1.5370   -2.1510   -1.2900 H   0  0  0  0  0  0  0  0  0  0  0  0
    0.9850   -0.7170   -2.1570 H   0  0  0  0  0  0  0  0  0  0  0  0
    1.0300   -0.7420    2.1300 H   0  0  0  0  0  0  0  0  0  0  0  0
    1.5630   -2.1660    1.2340 H   0  0  0  0  0  0  0  0  0  0  0  0
    2.5490   -0.7290    1.2320 H   0  0  0  0  0  0  0  0  0  0  0  0
    1.2020    3.5870   -0.8760 H   0  0  0  0  0  0  0  0  0  0  0  0
    1.2200    3.5770    0.8950 H   0  0  0  0  0  0  0  0  0  0  0  0
   -0.5330   -3.0650   -0.8970 H   0  0  0  0  0  0  0  0  0  0  0  0
   -0.5140   -3.0760    0.8730 H   0  0  0  0  0  0  0  0  0  0  0  0
    3.7040    3.8780    0.8720 H   0  0  0  0  0  0  0  0  0  0  0  0
    3.6860    3.8880   -0.8990 H   0  0  0  0  0  0  0  0  0  0  0  0
   -2.9330   -2.4760    0.9020 H   0  0  0  0  0  0  0  0  0  0  0  0
   -2.9510   -2.4650   -0.8690 H   0  0  0  0  0  0  0  0  0  0  0  0
    2.2570    5.9420   -0.8730 H   0  0  0  0  0  0  0  0  0  0  0  0
    2.2750    5.9320    0.8980 H   0  0  0  0  0  0  0  0  0  0  0  0
   -2.3390   -4.8910   -0.8900 H   0  0  0  0  0  0  0  0  0  0  0  0
   -2.3200   -4.9010    0.8810 H   0  0  0  0  0  0  0  0  0  0  0  0
    4.7590    6.2340    0.8750 H   0  0  0  0  0  0  0  0  0  0  0  0
    4.7420    6.2440   -0.8970 H   0  0  0  0  0  0  0  0  0  0  0  0
   -4.7510   -4.3080    0.9100 H   0  0  0  0  0  0  0  0  0  0  0  0
   -4.7690   -4.2970   -0.8610 H   0  0  0  0  0  0  0  0  0  0  0  0
    3.3130    8.2990   -0.8710 H   0  0  0  0  0  0  0  0  0  0  0  0
    3.3310    8.2890    0.9010 H   0  0  0  0  0  0  0  0  0  0  0  0
   -4.1580   -6.7230   -0.8830 H   0  0  0  0  0  0  0  0  0  0  0  0
   -4.1390   -6.7340    0.8890 H   0  0  0  0  0  0  0  0  0  0  0  0
    5.8150    8.5920    0.8780 H   0  0  0  0  0  0  0  0  0  0  0  0
    5.7980    8.6010   -0.8940 H   0  0  0  0  0  0  0  0  0  0  0  0
   -6.5700   -6.1400    0.9180 H   0  0  0  0  0  0  0  0  0  0  0  0
   -6.5890   -6.1290   -0.8540 H   0  0  0  0  0  0  0  0  0  0  0  0
    4.3710   10.6620   -0.8680 H   0  0  0  0  0  0  0  0  0  0  0  0
    4.3890   10.6520    0.9030 H   0  0  0  0  0  0  0  0  0  0  0  0
   -5.9770   -8.5560   -0.8750 H   0  0  0  0  0  0  0  0  0  0  0  0
   -5.9590   -8.5670    0.8960 H   0  0  0  0  0  0  0  0  0  0  0  0
    6.0310   12.2790    0.0100 H   0  0  0  0  0  0  0  0  0  0  0  0
    6.8690   10.9840    0.8840 H   0  0  0  0  0  0  0  0  0  0  0  0
    6.8520   10.9930   -0.8940 H   0  0  0  0  0  0  0  0  0  0  0  0
   -8.3950   -7.9780    0.9240 H   0  0  0  0  0  0  0  0  0  0  0  0
   -8.4130   -7.9670   -0.8460 H   0  0  0  0  0  0  0  0  0  0  0  0
   -9.3230  -10.0960    0.0360 H   0  0  0  0  0  0  0  0  0  0  0  0
   -7.8300  -10.4000   -0.8710 H   0  0  0  0  0  0  0  0  0  0  0  0
   -7.8120  -10.4110    0.9070 H   0  0  0  0  0  0  0  0  0  0  0  0
  1 25  1  0  0  0  0
  1  2  1  0  0  0  0
  1  3  1  0  0  0  0
  1 24  1  0  0  0  0
  2  4  1  0  0  0  0
  2  6  1  0  0  0  0
  2  5  1  0  0  0  0
  3  7  1  0  0  0  0
  3 26  1  0  0  0  0
  3 27  1  0  0  0  0
  4 28  1  0  0  0  0
  4  8  1  0  0  0  0
  4 29  1  0  0  0  0
  5 30  1  0  0  0  0
  5 31  1  0  0  0  0
  5 32  1  0  0  0  0
  6 35  1  0  0  0  0
  6 34  1  0  0  0  0
  6 33  1  0  0  0  0
  7 37  1  0  0  0  0
  7  9  1  0  0  0  0
  7 36  1  0  0  0  0
  8 10  1  0  0  0  0
  8 39  1  0  0  0  0
  8 38  1  0  0  0  0
  9 11  1  0  0  0  0
  9 40  1  0  0  0  0
  9 41  1  0  0  0  0
 10 42  1  0  0  0  0
 10 12  1  0  0  0  0
 10 43  1  0  0  0  0
 11 45  1  0  0  0  0
 11 13  1  0  0  0  0
 11 44  1  0  0  0  0
 12 14  1  0  0  0  0
 12 47  1  0  0  0  0
 12 46  1  0  0  0  0
 13 15  1  0  0  0  0
 13 48  1  0  0  0  0
 13 49  1  0  0  0  0
 14 50  1  0  0  0  0
 14 16  1  0  0  0  0
 14 51  1  0  0  0  0
 15 53  1  0  0  0  0
 15 17  1  0  0  0  0
 15 52  1  0  0  0  0
 16 18  1  0  0  0  0
 16 55  1  0  0  0  0
 16 54  1  0  0  0  0
 17 19  1  0  0  0  0
 17 56  1  0  0  0  0
 17 57  1  0  0  0  0
 18 58  1  0  0  0  0
 18 20  1  0  0  0  0
 18 59  1  0  0  0  0
 19 61  1  0  0  0  0
 19 21  1  0  0  0  0
 19 60  1  0  0  0  0
 20 22  1  0  0  0  0
 20 63  1  0  0  0  0
 20 62  1  0  0  0  0
 21 64  1  0  0  0  0
 21 65  1  0  0  0  0
 21 66  1  0  0  0  0
 22 67  1  0  0  0  0
 22 23  1  0  0  0  0
 22 68  1  0  0  0  0
 23 69  1  0  0  0  0
 23 71  1  0  0  0  0
 23 70  1  0  0  0  0
M  END
