decoy-915
 OpenBabel06062114513D

 44 48  0  0  0  0  0  0  0  0999 V2000
   -0.0090    1.3520    0.0120 C   0  0  0  0  0  0  0  0  0  0  0  0
   -0.0070    0.0040   -0.3230 C   0  0  0  0  0  0  0  0  0  0  0  0
    1.2720    1.7540    0.1210 O   0  0  0  0  0  0  0  0  0  0  0  0
   -1.2110    2.0570    0.1800 C   0  0  0  0  0  0  0  0  0  0  0  0
    1.2660   -0.4000   -0.4160 N   0  0  0  0  0  0  0  0  0  0  0  0
   -1.2090   -0.6950   -0.5040 C   0  0  0  0  0  0  0  0  0  0  0  0
    2.0470    0.6690   -0.1450 C   0  0  0  0  0  0  0  0  0  0  0  0
   -2.4480    1.3800    0.0070 C   0  0  0  0  0  0  0  0  0  0  0  0
   -2.4260   -0.0010   -0.3370 C   0  0  0  0  0  0  0  0  0  0  0  0
    3.4640    0.6730   -0.1340 C   0  0  0  0  0  0  0  0  0  0  0  0
   -3.6840    2.0710    0.1730 C   0  0  0  0  0  0  0  0  0  0  0  0
    4.2040   -0.4970   -0.4220 C   0  0  0  0  0  0  0  0  0  0  0  0
    4.1760    1.8570    0.1670 C   0  0  0  0  0  0  0  0  0  0  0  0
   -4.7410    1.5030    0.9290 C   0  0  0  0  0  0  0  0  0  0  0  0
   -3.8910    3.3460   -0.4110 C   0  0  0  0  0  0  0  0  0  0  0  0
    5.6110   -0.4830   -0.4080 C   0  0  0  0  0  0  0  0  0  0  0  0
    5.5820    1.8710    0.1780 C   0  0  0  0  0  0  0  0  0  0  0  0
   -5.9600    2.1850    1.0940 C   0  0  0  0  0  0  0  0  0  0  0  0
   -5.1110    4.0280   -0.2480 C   0  0  0  0  0  0  0  0  0  0  0  0
    6.3260    0.7010   -0.1080 C   0  0  0  0  0  0  0  0  0  0  0  0
   -6.1460    3.4480    0.5060 C   0  0  0  0  0  0  0  0  0  0  0  0
    7.7520    0.7150   -0.0960 C   0  0  0  0  0  0  0  0  0  0  0  0
    8.4760    1.7550   -0.7310 C   0  0  0  0  0  0  0  0  0  0  0  0
    8.4850   -0.3110    0.5530 C   0  0  0  0  0  0  0  0  0  0  0  0
    9.8840    1.7690   -0.7190 C   0  0  0  0  0  0  0  0  0  0  0  0
    9.8920   -0.2970    0.5660 C   0  0  0  0  0  0  0  0  0  0  0  0
   10.5920    0.7430   -0.0700 C   0  0  0  0  0  0  0  0  0  0  0  0
   -1.1750    3.0450    0.4410 H   0  0  0  0  0  0  0  0  0  0  0  0
   -1.2010   -1.6860   -0.7540 H   0  0  0  0  0  0  0  0  0  0  0  0
   -3.3000   -0.5120   -0.4840 H   0  0  0  0  0  0  0  0  0  0  0  0
    3.7270   -1.3730   -0.6480 H   0  0  0  0  0  0  0  0  0  0  0  0
    3.6780    2.7240    0.3840 H   0  0  0  0  0  0  0  0  0  0  0  0
   -4.6260    0.5920    1.3800 H   0  0  0  0  0  0  0  0  0  0  0  0
   -3.1590    3.7840   -0.9770 H   0  0  0  0  0  0  0  0  0  0  0  0
    6.1100   -1.3460   -0.6370 H   0  0  0  0  0  0  0  0  0  0  0  0
    6.0600    2.7440    0.4160 H   0  0  0  0  0  0  0  0  0  0  0  0
   -6.7120    1.7640    1.6450 H   0  0  0  0  0  0  0  0  0  0  0  0
   -5.2460    4.9450   -0.6790 H   0  0  0  0  0  0  0  0  0  0  0  0
   -7.0320    3.9440    0.6250 H   0  0  0  0  0  0  0  0  0  0  0  0
    7.9850    2.5050   -1.2230 H   0  0  0  0  0  0  0  0  0  0  0  0
    8.0000   -1.0700    1.0370 H   0  0  0  0  0  0  0  0  0  0  0  0
   10.3920    2.5240   -1.1850 H   0  0  0  0  0  0  0  0  0  0  0  0
   10.4070   -1.0410    1.0420 H   0  0  0  0  0  0  0  0  0  0  0  0
   11.6140    0.7530   -0.0600 H   0  0  0  0  0  0  0  0  0  0  0  0
  1  3  1  0  0  0  0
  1  4  2  0  0  0  0
  1  2  1  0  0  0  0
  2  5  1  0  0  0  0
  2  6  2  0  0  0  0
  3  7  1  0  0  0  0
  4 28  1  0  0  0  0
  4  8  1  0  0  0  0
  5  7  2  0  0  0  0
  6  9  1  0  0  0  0
  6 29  1  0  0  0  0
  7 10  1  0  0  0  0
  8 11  1  0  0  0  0
  8  9  2  0  0  0  0
  9 30  1  0  0  0  0
 10 13  2  0  0  0  0
 10 12  1  0  0  0  0
 11 14  2  0  0  0  0
 11 15  1  0  0  0  0
 12 16  2  0  0  0  0
 12 31  1  0  0  0  0
 13 17  1  0  0  0  0
 13 32  1  0  0  0  0
 14 18  1  0  0  0  0
 14 33  1  0  0  0  0
 15 19  2  0  0  0  0
 15 34  1  0  0  0  0
 16 20  1  0  0  0  0
 16 35  1  0  0  0  0
 17 36  1  0  0  0  0
 17 20  2  0  0  0  0
 18 37  1  0  0  0  0
 18 21  2  0  0  0  0
 19 21  1  0  0  0  0
 19 38  1  0  0  0  0
 20 22  1  0  0  0  0
 21 39  1  0  0  0  0
 22 24  2  0  0  0  0
 22 23  1  0  0  0  0
 23 25  2  0  0  0  0
 23 40  1  0  0  0  0
 24 26  1  0  0  0  0
 24 41  1  0  0  0  0
 25 27  1  0  0  0  0
 25 42  1  0  0  0  0
 26 43  1  0  0  0  0
 26 27  2  0  0  0  0
 27 44  1  0  0  0  0
M  END
