decoy-872
 OpenBabel06062114513D

 50 54  0  0  0  0  0  0  0  0999 V2000
   -1.1400    1.7310   -2.1280 C   0  0  0  0  0  0  0  0  0  0  0  0
   -1.0760    0.3400   -2.4190 C   0  0  0  0  0  0  0  0  0  0  0  0
   -0.0660    2.5410   -2.2770 O   0  0  0  0  0  0  0  0  0  0  0  0
   -2.1960    2.5550   -1.7150 C   0  0  0  0  0  0  0  0  0  0  0  0
   -0.0960   -0.1310   -3.3290 C   0  0  0  0  0  0  0  0  0  0  0  0
   -1.9350   -0.6120   -1.8170 C   0  0  0  0  0  0  0  0  0  0  0  0
   -0.4290    3.8050   -1.9630 C   0  0  0  0  0  0  0  0  0  0  0  0
   -1.7300    3.8110   -1.6280 N   0  0  0  0  0  0  0  0  0  0  0  0
   -3.6110    2.2280   -1.4660 C   0  0  0  0  0  0  0  0  0  0  0  0
    0.0060   -1.4990   -3.6430 C   0  0  0  0  0  0  0  0  0  0  0  0
   -1.8330   -1.9810   -2.1290 C   0  0  0  0  0  0  0  0  0  0  0  0
    0.4300    4.9300   -1.9990 C   0  0  0  0  0  0  0  0  0  0  0  0
   -0.8650   -2.4250   -3.0450 C   0  0  0  0  0  0  0  0  0  0  0  0
   -0.0370    6.2210   -1.6590 C   0  0  0  0  0  0  0  0  0  0  0  0
    1.7830    4.7860   -2.3800 C   0  0  0  0  0  0  0  0  0  0  0  0
    0.8250    7.3330   -1.6980 C   0  0  0  0  0  0  0  0  0  0  0  0
    2.6450    5.8980   -2.4190 C   0  0  0  0  0  0  0  0  0  0  0  0
    2.1790    7.1880   -2.0790 C   0  0  0  0  0  0  0  0  0  0  0  0
    3.0530    8.3010   -2.1210 C   0  0  0  0  0  0  0  0  0  0  0  0
    4.3580    8.2490   -2.4770 O   0  0  0  0  0  0  0  0  0  0  0  0
    2.7310    9.5730   -1.8280 N   0  0  0  0  0  0  0  0  0  0  0  0
    4.8690    9.4970   -2.3940 C   0  0  0  0  0  0  0  0  0  0  0  0
    3.8230   10.3350   -1.9910 C   0  0  0  0  0  0  0  0  0  0  0  0
    6.2280    9.7770   -2.6770 C   0  0  0  0  0  0  0  0  0  0  0  0
    3.7800   11.7990   -1.8280 C   0  0  0  0  0  0  0  0  0  0  0  0
    6.9760   10.7030   -1.9110 C   0  0  0  0  0  0  0  0  0  0  0  0
    6.8850    9.0700   -3.7120 C   0  0  0  0  0  0  0  0  0  0  0  0
    8.3330   10.9430   -2.1970 C   0  0  0  0  0  0  0  0  0  0  0  0
    8.2410    9.3120   -4.0000 C   0  0  0  0  0  0  0  0  0  0  0  0
    8.9650   10.2520   -3.2450 C   0  0  0  0  0  0  0  0  0  0  0  0
    0.5490    0.5190   -3.7860 H   0  0  0  0  0  0  0  0  0  0  0  0
   -2.6250   -0.3320   -1.1230 H   0  0  0  0  0  0  0  0  0  0  0  0
   -4.1990    3.1400   -1.3460 H   0  0  0  0  0  0  0  0  0  0  0  0
   -4.0160    1.6640   -2.3070 H   0  0  0  0  0  0  0  0  0  0  0  0
   -3.7040    1.6440   -0.5510 H   0  0  0  0  0  0  0  0  0  0  0  0
    0.7150   -1.8210   -4.3070 H   0  0  0  0  0  0  0  0  0  0  0  0
   -2.4590   -2.6550   -1.6820 H   0  0  0  0  0  0  0  0  0  0  0  0
   -0.7900   -3.4190   -3.2700 H   0  0  0  0  0  0  0  0  0  0  0  0
   -1.0100    6.3660   -1.3780 H   0  0  0  0  0  0  0  0  0  0  0  0
    2.1590    3.8680   -2.6330 H   0  0  0  0  0  0  0  0  0  0  0  0
    0.4490    8.2500   -1.4440 H   0  0  0  0  0  0  0  0  0  0  0  0
    3.6180    5.7520   -2.7000 H   0  0  0  0  0  0  0  0  0  0  0  0
    4.6900   12.2750   -2.1880 H   0  0  0  0  0  0  0  0  0  0  0  0
    2.9420   12.2020   -2.4000 H   0  0  0  0  0  0  0  0  0  0  0  0
    3.6400   12.0440   -0.7750 H   0  0  0  0  0  0  0  0  0  0  0  0
    6.5510   11.1890   -1.1190 H   0  0  0  0  0  0  0  0  0  0  0  0
    6.3780    8.3830   -4.2770 H   0  0  0  0  0  0  0  0  0  0  0  0
    8.8630   11.6140   -1.6360 H   0  0  0  0  0  0  0  0  0  0  0  0
    8.7020    8.8030   -4.7580 H   0  0  0  0  0  0  0  0  0  0  0  0
    9.9510   10.4250   -3.4520 H   0  0  0  0  0  0  0  0  0  0  0  0
  1  4  2  0  0  0  0
  1  2  1  0  0  0  0
  1  3  1  0  0  0  0
  2  6  2  0  0  0  0
  2  5  1  0  0  0  0
  3  7  1  0  0  0  0
  4  8  1  0  0  0  0
  4  9  1  0  0  0  0
  5 10  2  0  0  0  0
  5 31  1  0  0  0  0
  6 32  1  0  0  0  0
  6 11  1  0  0  0  0
  7  8  2  0  0  0  0
  7 12  1  0  0  0  0
  9 33  1  0  0  0  0
  9 35  1  0  0  0  0
  9 34  1  0  0  0  0
 10 13  1  0  0  0  0
 10 36  1  0  0  0  0
 11 37  1  0  0  0  0
 11 13  2  0  0  0  0
 12 14  2  0  0  0  0
 12 15  1  0  0  0  0
 13 38  1  0  0  0  0
 14 39  1  0  0  0  0
 14 16  1  0  0  0  0
 15 17  2  0  0  0  0
 15 40  1  0  0  0  0
 16 41  1  0  0  0  0
 16 18  2  0  0  0  0
 17 18  1  0  0  0  0
 17 42  1  0  0  0  0
 18 19  1  0  0  0  0
 19 21  2  0  0  0  0
 19 20  1  0  0  0  0
 20 22  1  0  0  0  0
 21 23  1  0  0  0  0
 22 23  2  0  0  0  0
 22 24  1  0  0  0  0
 23 25  1  0  0  0  0
 24 26  2  0  0  0  0
 24 27  1  0  0  0  0
 25 45  1  0  0  0  0
 25 43  1  0  0  0  0
 25 44  1  0  0  0  0
 26 46  1  0  0  0  0
 26 28  1  0  0  0  0
 27 29  2  0  0  0  0
 27 47  1  0  0  0  0
 28 48  1  0  0  0  0
 28 30  2  0  0  0  0
 29 30  1  0  0  0  0
 29 49  1  0  0  0  0
 30 50  1  0  0  0  0
M  END
