decoy-800
 OpenBabel06062114513D

 33 34  0  0  0  0  0  0  0  0999 V2000
   -1.7580    1.2020    2.2900 C   0  0  0  0  0  0  0  0  0  0  0  0
   -1.9640   -0.2020    2.1700 C   0  0  0  0  0  0  0  0  0  0  0  0
   -2.1250    1.9330    3.4540 C   0  0  0  0  0  0  0  0  0  0  0  0
   -1.1800    1.9200    1.2110 C   0  0  0  0  0  0  0  0  0  0  0  0
   -1.3250   -0.8980    1.1880 O   0  0  0  0  0  0  0  0  0  0  0  0
   -2.8290   -0.8430    2.9900 O   0  0  0  0  0  0  0  0  0  0  0  0
   -1.9370    3.3280    3.5140 C   0  0  0  0  0  0  0  0  0  0  0  0
   -2.6420    1.3470    4.5650 O   0  0  0  0  0  0  0  0  0  0  0  0
   -0.9880    3.3120    1.2790 C   0  0  0  0  0  0  0  0  0  0  0  0
   -1.2710   -2.1980    0.7620 C   0  0  0  0  0  0  0  0  0  0  0  0
   -1.3710    4.0180    2.4300 C   0  0  0  0  0  0  0  0  0  0  0  0
   -1.9200   -3.2870    1.3830 C   0  0  0  0  0  0  0  0  0  0  0  0
   -0.4870   -2.4460   -0.3810 C   0  0  0  0  0  0  0  0  0  0  0  0
   -1.7960   -4.5890    0.8620 C   0  0  0  0  0  0  0  0  0  0  0  0
   -0.3620   -3.7470   -0.9020 C   0  0  0  0  0  0  0  0  0  0  0  0
   -1.0260   -4.8380   -0.3000 C   0  0  0  0  0  0  0  0  0  0  0  0
   -0.8280   -6.0640   -0.8780 N   0  0  0  0  0  0  0  0  0  0  0  0
   -1.5170   -7.1930   -0.7710 C   0  0  0  0  0  0  0  0  0  0  0  0
   -1.0580   -8.3430   -1.5170 C   0  0  0  0  0  0  0  0  0  0  0  0
   -2.5460   -7.2930   -0.1160 O   0  0  0  0  0  0  0  0  0  0  0  0
   -0.9020    1.4420    0.3500 H   0  0  0  0  0  0  0  0  0  0  0  0
   -2.2040    3.8480    4.3540 H   0  0  0  0  0  0  0  0  0  0  0  0
   -2.1770    0.4880    4.6480 H   0  0  0  0  0  0  0  0  0  0  0  0
   -0.5750    3.8110    0.4880 H   0  0  0  0  0  0  0  0  0  0  0  0
   -1.2330    5.0300    2.4800 H   0  0  0  0  0  0  0  0  0  0  0  0
   -2.4770   -3.1530    2.2260 H   0  0  0  0  0  0  0  0  0  0  0  0
    0.0000   -1.6740   -0.8430 H   0  0  0  0  0  0  0  0  0  0  0  0
   -2.2550   -5.3510    1.3610 H   0  0  0  0  0  0  0  0  0  0  0  0
    0.2160   -3.8900   -1.7340 H   0  0  0  0  0  0  0  0  0  0  0  0
   -0.0840   -6.1020   -1.5010 H   0  0  0  0  0  0  0  0  0  0  0  0
   -1.7070   -9.2090   -1.3660 H   0  0  0  0  0  0  0  0  0  0  0  0
   -1.0400   -8.1090   -2.5830 H   0  0  0  0  0  0  0  0  0  0  0  0
   -0.0500   -8.6120   -1.1960 H   0  0  0  0  0  0  0  0  0  0  0  0
  1  3  2  0  0  0  0
  1  2  1  0  0  0  0
  1  4  1  0  0  0  0
  2  6  2  0  0  0  0
  2  5  1  0  0  0  0
  3  7  1  0  0  0  0
  3  8  1  0  0  0  0
  4  9  2  0  0  0  0
  4 21  1  0  0  0  0
  5 10  1  0  0  0  0
  7 22  1  0  0  0  0
  7 11  2  0  0  0  0
  8 23  1  0  0  0  0
  9 11  1  0  0  0  0
  9 24  1  0  0  0  0
 10 12  2  0  0  0  0
 10 13  1  0  0  0  0
 11 25  1  0  0  0  0
 12 26  1  0  0  0  0
 12 14  1  0  0  0  0
 13 15  2  0  0  0  0
 13 27  1  0  0  0  0
 14 28  1  0  0  0  0
 14 16  2  0  0  0  0
 15 16  1  0  0  0  0
 15 29  1  0  0  0  0
 16 17  1  0  0  0  0
 17 18  1  0  0  0  0
 17 30  1  0  0  0  0
 18 20  2  0  0  0  0
 18 19  1  0  0  0  0
 19 31  1  0  0  0  0
 19 33  1  0  0  0  0
 19 32  1  0  0  0  0
M  END
