decoy-879
 OpenBabel06062114513D

 61 64  0  0  0  0  0  0  0  0999 V2000
    0.7780    2.0130    0.2040 C   0  0  0  0  0  0  0  0  0  0  0  0
   -0.0800    0.9030   -0.4940 C   0  0  0  0  0  0  0  0  0  0  0  0
    2.1620    1.4570    0.6790 C   0  0  0  0  0  0  0  0  0  0  0  0
   -0.0740    2.7410    1.2800 C   0  0  0  0  0  0  0  0  0  0  0  0
   -1.3270    1.4900   -1.0300 C   0  0  0  0  0  0  0  0  0  0  0  0
    0.7590    0.1460   -1.4500 C   0  0  0  0  0  0  0  0  0  0  0  0
   -0.5080   -0.0430    0.4940 O   0  0  0  0  0  0  0  0  0  0  0  0
    2.8290    0.8410   -0.4800 C   0  0  0  0  0  0  0  0  0  0  0  0
    2.0480    0.5980    1.9290 *   0  0  0  0  0  0  0  0  0  0  0  0
   -1.3370    3.3450    0.5980 C   0  0  0  0  0  0  0  0  0  0  0  0
   -2.0270    2.4450   -0.3580 C   0  0  0  0  0  0  0  0  0  0  0  0
   -1.8610    0.9090   -2.1090 O   0  0  0  0  0  0  0  0  0  0  0  0
    2.1410    0.2410   -1.4850 C   0  0  0  0  0  0  0  0  0  0  0  0
    0.2280   -0.7950   -2.0330 O   0  0  0  0  0  0  0  0  0  0  0  0
    4.1660    0.8950   -0.4630 O   0  0  0  0  0  0  0  0  0  0  0  0
    2.4270   -0.8450    1.8210 C   0  0  0  0  0  0  0  0  0  0  0  0
    2.6860    1.2170    3.1300 C   0  0  0  0  0  0  0  0  0  0  0  0
   -2.3250    3.9350    1.6530 C   0  0  0  0  0  0  0  0  0  0  0  0
   -3.3480    2.7270   -0.6500 C   0  0  0  0  0  0  0  0  0  0  0  0
    2.8130   -0.2720   -2.5500 C   0  0  0  0  0  0  0  0  0  0  0  0
   -3.5350    4.5230    0.9940 C   0  0  0  0  0  0  0  0  0  0  0  0
   -3.9550    3.9150   -0.2270 C   0  0  0  0  0  0  0  0  0  0  0  0
   -4.1100    1.7950   -0.8790 O   0  0  0  0  0  0  0  0  0  0  0  0
    2.8080    0.3450   -3.7100 N   0  0  0  0  0  0  0  0  0  0  0  0
    3.4220   -1.3270   -2.4440 O   0  0  0  0  0  0  0  0  0  0  0  0
   -4.1630    5.7210    1.4620 C   0  0  0  0  0  0  0  0  0  0  0  0
   -4.9520    4.5370   -1.0170 C   0  0  0  0  0  0  0  0  0  0  0  0
   -5.1460    6.3150    0.6310 C   0  0  0  0  0  0  0  0  0  0  0  0
   -3.8970    6.2990    2.6830 N   0  0  0  0  0  0  0  0  0  0  0  0
   -5.5350    5.7370   -0.5860 C   0  0  0  0  0  0  0  0  0  0  0  0
   -5.3680    4.0390   -2.2130 O   0  0  0  0  0  0  0  0  0  0  0  0
   -3.8160    7.7340    2.8540 C   0  0  0  0  0  0  0  0  0  0  0  0
   -3.8320    5.5180    3.8980 C   0  0  0  0  0  0  0  0  0  0  0  0
    1.0070    2.7710   -0.5600 H   0  0  0  0  0  0  0  0  0  0  0  0
    2.7510    2.3550    0.9070 H   0  0  0  0  0  0  0  0  0  0  0  0
   -0.3730    2.0460    2.0680 H   0  0  0  0  0  0  0  0  0  0  0  0
    0.5160    3.5400    1.7370 H   0  0  0  0  0  0  0  0  0  0  0  0
   -1.0540   -0.7010    0.0120 H   0  0  0  0  0  0  0  0  0  0  0  0
   -0.9840    4.1940   -0.0010 H   0  0  0  0  0  0  0  0  0  0  0  0
   -2.3930    1.6010   -2.5540 H   0  0  0  0  0  0  0  0  0  0  0  0
    4.4660    0.7810   -1.3880 H   0  0  0  0  0  0  0  0  0  0  0  0
    2.1690   -1.3810    2.7370 H   0  0  0  0  0  0  0  0  0  0  0  0
    1.8830   -1.3250    1.0070 H   0  0  0  0  0  0  0  0  0  0  0  0
    3.4990   -0.9600    1.6420 H   0  0  0  0  0  0  0  0  0  0  0  0
    2.3000    2.2260    3.2890 H   0  0  0  0  0  0  0  0  0  0  0  0
    2.4620    0.6420    4.0320 H   0  0  0  0  0  0  0  0  0  0  0  0
    3.7710    1.2720    3.0110 H   0  0  0  0  0  0  0  0  0  0  0  0
   -2.6480    3.1390    2.3300 H   0  0  0  0  0  0  0  0  0  0  0  0
   -1.7880    4.6910    2.2300 H   0  0  0  0  0  0  0  0  0  0  0  0
    3.2860   -0.0330   -4.4640 H   0  0  0  0  0  0  0  0  0  0  0  0
    2.3260    1.1810   -3.8150 H   0  0  0  0  0  0  0  0  0  0  0  0
   -5.6380    7.1610    0.9290 H   0  0  0  0  0  0  0  0  0  0  0  0
   -6.2570    6.1890   -1.1520 H   0  0  0  0  0  0  0  0  0  0  0  0
   -4.6820    3.4000   -2.4960 H   0  0  0  0  0  0  0  0  0  0  0  0
   -2.9380    7.9910    3.4510 H   0  0  0  0  0  0  0  0  0  0  0  0
   -3.7170    8.2660    1.9050 H   0  0  0  0  0  0  0  0  0  0  0  0
   -4.7070    8.1030    3.3670 H   0  0  0  0  0  0  0  0  0  0  0  0
   -4.1010    4.4710    3.7470 H   0  0  0  0  0  0  0  0  0  0  0  0
   -2.8270    5.5630    4.3220 H   0  0  0  0  0  0  0  0  0  0  0  0
   -4.5330    5.9130    4.6370 H   0  0  0  0  0  0  0  0  0  0  0  0
    1.0510    0.5770    2.1500 H   0  0  0  0  0  0  0  0  0  0  0  0
  1  2  1  0  0  0  0
  1  4  1  0  0  0  0
  1  3  1  0  0  0  0
  1 34  1  0  0  0  0
  2  7  1  0  0  0  0
  2  5  1  0  0  0  0
  2  6  1  0  0  0  0
  3 35  1  0  0  0  0
  3  9  1  0  0  0  0
  3  8  1  0  0  0  0
  4 37  1  0  0  0  0
  4 36  1  0  0  0  0
  4 10  1  0  0  0  0
  5 11  1  0  0  0  0
  5 12  1  0  0  0  0
  6 13  1  0  0  0  0
  6 14  2  0  0  0  0
  7 38  1  0  0  0  0
  8 15  1  0  0  0  0
  8 13  2  0  0  0  0
  9 61  1  0  0  0  0
  9 17  1  0  0  0  0
  9 16  1  0  0  0  0
 10 39  1  0  0  0  0
 10 18  1  0  0  0  0
 10 11  1  0  0  0  0
 11 19  1  0  0  0  0
 12 40  1  0  0  0  0
 13 20  1  0  0  0  0
 15 41  1  0  0  0  0
 16 42  1  0  0  0  0
 16 43  1  0  0  0  0
 16 44  1  0  0  0  0
 17 45  1  0  0  0  0
 17 46  1  0  0  0  0
 17 47  1  0  0  0  0
 18 49  1  0  0  0  0
 18 48  1  0  0  0  0
 18 21  1  0  0  0  0
 19 22  1  0  0  0  0
 19 23  2  0  0  0  0
 20 25  2  0  0  0  0
 20 24  1  0  0  0  0
 21 26  2  0  0  0  0
 21 22  1  0  0  0  0
 22 27  2  0  0  0  0
 24 50  1  0  0  0  0
 24 51  1  0  0  0  0
 26 29  1  0  0  0  0
 26 28  1  0  0  0  0
 27 30  1  0  0  0  0
 27 31  1  0  0  0  0
 28 52  1  0  0  0  0
 28 30  2  0  0  0  0
 29 32  1  0  0  0  0
 29 33  1  0  0  0  0
 30 53  1  0  0  0  0
 31 54  1  0  0  0  0
 32 57  1  0  0  0  0
 32 55  1  0  0  0  0
 32 56  1  0  0  0  0
 33 59  1  0  0  0  0
 33 60  1  0  0  0  0
 33 58  1  0  0  0  0
M  END
