decoy-357
 OpenBabel06062114513D

  9  9  0  0  0  0  0  0  0  0999 V2000
   -0.0030    1.3630    0.0060 C   0  0  0  0  0  0  0  0  0  0  0  0
    0.0040   -0.0260    0.0010 C   0  0  0  0  0  0  0  0  0  0  0  0
    1.2740    1.7570   -0.0030 N   0  0  0  0  0  0  0  0  0  0  0  0
   -1.4860    2.4810    0.0240 Br  0  0  0  0  0  0  0  0  0  0  0  0
    1.2800   -0.4410   -0.0110 N   0  0  0  0  0  0  0  0  0  0  0  0
   -1.4820   -1.1410    0.0100 Br  0  0  0  0  0  0  0  0  0  0  0  0
    2.0470    0.6620   -0.0140 C   0  0  0  0  0  0  0  0  0  0  0  0
    3.9040    0.6670   -0.0310 Br  0  0  0  0  0  0  0  0  0  0  0  0
    1.5870    2.6760   -0.0030 H   0  0  0  0  0  0  0  0  0  0  0  0
  1  4  1  0  0  0  0
  1  2  2  0  0  0  0
  1  3  1  0  0  0  0
  2  6  1  0  0  0  0
  2  5  1  0  0  0  0
  3  9  1  0  0  0  0
  3  7  1  0  0  0  0
  5  7  2  0  0  0  0
  7  8  1  0  0  0  0
M  END
