decoy-37
 OpenBabel06062114503D

 83 88  0  0  0  0  0  0  0  0999 V2000
    3.1220    2.8540    0.2670 C   0  0  0  0  0  0  0  0  0  0  0  0
    2.2520    1.9400    1.2410 C   0  0  0  0  0  0  0  0  0  0  0  0
    3.4770    2.1230   -1.0930 C   0  0  0  0  0  0  0  0  0  0  0  0
    2.2970    4.1900    0.0000 C   0  0  0  0  0  0  0  0  0  0  0  0
    4.4650    3.2690    0.9680 C   0  0  0  0  0  0  0  0  0  0  0  0
    2.7760    0.7920    2.3570 P   0  0  0  0  0  0  0  0  0  0  0  0
    2.2160    1.7510   -2.1500 P   0  0  0  0  0  0  0  0  0  0  0  0
    2.9970    5.4140   -0.9260 P   0  0  0  0  0  0  0  0  0  0  0  0
    3.7310    1.4380    3.4910 C   0  0  0  0  0  0  0  0  0  0  0  0
    3.3270   -0.5580    1.6770 C   0  0  0  0  0  0  0  0  0  0  0  0
    1.7320    0.2440   -1.8470 C   0  0  0  0  0  0  0  0  0  0  0  0
    2.7430    1.6100   -3.6720 C   0  0  0  0  0  0  0  0  0  0  0  0
    2.6020    5.2330   -2.4770 C   0  0  0  0  0  0  0  0  0  0  0  0
    2.3350    6.8240   -0.5090 C   0  0  0  0  0  0  0  0  0  0  0  0
    5.0300    0.9590    3.8050 C   0  0  0  0  0  0  0  0  0  0  0  0
    3.2120    2.4950    4.2840 C   0  0  0  0  0  0  0  0  0  0  0  0
    4.5510   -0.6690    0.9730 C   0  0  0  0  0  0  0  0  0  0  0  0
    2.5570   -1.7310    1.8690 C   0  0  0  0  0  0  0  0  0  0  0  0
    2.5640   -0.8960   -1.9830 C   0  0  0  0  0  0  0  0  0  0  0  0
    0.3750    0.0470   -1.4940 C   0  0  0  0  0  0  0  0  0  0  0  0
    4.0990    1.4240   -4.0460 C   0  0  0  0  0  0  0  0  0  0  0  0
    1.7710    1.6700   -4.7020 C   0  0  0  0  0  0  0  0  0  0  0  0
    1.2750    5.1440   -2.9690 C   0  0  0  0  0  0  0  0  0  0  0  0
    3.6660    5.1970   -3.4120 C   0  0  0  0  0  0  0  0  0  0  0  0
    3.2000    7.9400   -0.4050 C   0  0  0  0  0  0  0  0  0  0  0  0
    0.9600    7.0100   -0.2160 C   0  0  0  0  0  0  0  0  0  0  0  0
    5.8000    1.5550    4.8210 C   0  0  0  0  0  0  0  0  0  0  0  0
    3.9820    3.0910    5.3010 C   0  0  0  0  0  0  0  0  0  0  0  0
    4.9950   -1.9120    0.4850 C   0  0  0  0  0  0  0  0  0  0  0  0
    3.0040   -2.9760    1.3870 C   0  0  0  0  0  0  0  0  0  0  0  0
    2.0490   -2.1900   -1.7860 C   0  0  0  0  0  0  0  0  0  0  0  0
   -0.1310   -1.2460   -1.2670 C   0  0  0  0  0  0  0  0  0  0  0  0
    4.4690    1.3230   -5.4000 C   0  0  0  0  0  0  0  0  0  0  0  0
    2.1410    1.5660   -6.0560 C   0  0  0  0  0  0  0  0  0  0  0  0
    1.0220    5.0440   -4.3500 C   0  0  0  0  0  0  0  0  0  0  0  0
    3.4120    5.0910   -4.7920 C   0  0  0  0  0  0  0  0  0  0  0  0
    2.7040    9.2060   -0.0400 C   0  0  0  0  0  0  0  0  0  0  0  0
    0.4650    8.2760    0.1480 C   0  0  0  0  0  0  0  0  0  0  0  0
    5.2800    2.6260    5.5650 C   0  0  0  0  0  0  0  0  0  0  0  0
    4.2250   -3.0680    0.6970 C   0  0  0  0  0  0  0  0  0  0  0  0
    0.7050   -2.3660   -1.4160 C   0  0  0  0  0  0  0  0  0  0  0  0
    3.4910    1.3980   -6.4060 C   0  0  0  0  0  0  0  0  0  0  0  0
    2.0900    5.0230   -5.2620 C   0  0  0  0  0  0  0  0  0  0  0  0
    1.3370    9.3750    0.2340 C   0  0  0  0  0  0  0  0  0  0  0  0
    1.6570    2.6020    1.8700 H   0  0  0  0  0  0  0  0  0  0  0  0
    1.5050    1.4250    0.6430 H   0  0  0  0  0  0  0  0  0  0  0  0
    4.1450    2.7920   -1.6350 H   0  0  0  0  0  0  0  0  0  0  0  0
    4.0550    1.2270   -0.8920 H   0  0  0  0  0  0  0  0  0  0  0  0
    1.3200    3.9310   -0.4120 H   0  0  0  0  0  0  0  0  0  0  0  0
    2.1010    4.6430    0.9750 H   0  0  0  0  0  0  0  0  0  0  0  0
    5.0770    2.4030    1.2050 H   0  0  0  0  0  0  0  0  0  0  0  0
    5.0720    3.9120    0.3280 H   0  0  0  0  0  0  0  0  0  0  0  0
    4.2690    3.8140    1.8930 H   0  0  0  0  0  0  0  0  0  0  0  0
    5.4390    0.1660    3.3160 H   0  0  0  0  0  0  0  0  0  0  0  0
    2.2630    2.8490    4.1410 H   0  0  0  0  0  0  0  0  0  0  0  0
    5.1580    0.1380    0.8430 H   0  0  0  0  0  0  0  0  0  0  0  0
    1.6670   -1.7050    2.3750 H   0  0  0  0  0  0  0  0  0  0  0  0
    3.5470   -0.8020   -2.2500 H   0  0  0  0  0  0  0  0  0  0  0  0
   -0.2660    0.8410   -1.3960 H   0  0  0  0  0  0  0  0  0  0  0  0
    4.8370    1.3410   -3.3450 H   0  0  0  0  0  0  0  0  0  0  0  0
    0.7770    1.7970   -4.4850 H   0  0  0  0  0  0  0  0  0  0  0  0
    0.4750    5.1490   -2.3370 H   0  0  0  0  0  0  0  0  0  0  0  0
    4.6420    5.2550   -3.1060 H   0  0  0  0  0  0  0  0  0  0  0  0
    4.2030    7.8530   -0.5980 H   0  0  0  0  0  0  0  0  0  0  0  0
    0.3020    6.2290   -0.2480 H   0  0  0  0  0  0  0  0  0  0  0  0
    6.7380    1.2020    5.0260 H   0  0  0  0  0  0  0  0  0  0  0  0
    3.5930    3.8580    5.8540 H   0  0  0  0  0  0  0  0  0  0  0  0
    5.8860   -1.9780   -0.0120 H   0  0  0  0  0  0  0  0  0  0  0  0
    2.4400   -3.8160    1.5380 H   0  0  0  0  0  0  0  0  0  0  0  0
    2.6540   -3.0050   -1.9060 H   0  0  0  0  0  0  0  0  0  0  0  0
   -1.1120   -1.3730   -1.0070 H   0  0  0  0  0  0  0  0  0  0  0  0
    5.4500    1.1900   -5.6530 H   0  0  0  0  0  0  0  0  0  0  0  0
    1.4280    1.6180   -6.7860 H   0  0  0  0  0  0  0  0  0  0  0  0
    0.0600    4.9830   -4.6910 H   0  0  0  0  0  0  0  0  0  0  0  0
    4.1910    5.0680   -5.4550 H   0  0  0  0  0  0  0  0  0  0  0  0
    3.3400   10.0040    0.0270 H   0  0  0  0  0  0  0  0  0  0  0  0
   -0.5290    8.3960    0.3560 H   0  0  0  0  0  0  0  0  0  0  0  0
    5.8380    3.0560    6.3060 H   0  0  0  0  0  0  0  0  0  0  0  0
    4.5500   -3.9720    0.3470 H   0  0  0  0  0  0  0  0  0  0  0  0
    0.3340   -3.3060   -1.2630 H   0  0  0  0  0  0  0  0  0  0  0  0
    3.7600    1.3250   -7.3890 H   0  0  0  0  0  0  0  0  0  0  0  0
    1.9060    4.9480   -6.2650 H   0  0  0  0  0  0  0  0  0  0  0  0
    0.9770   10.2950    0.5000 H   0  0  0  0  0  0  0  0  0  0  0  0
  1  5  1  0  0  0  0
  1  2  1  0  0  0  0
  1  3  1  0  0  0  0
  1  4  1  0  0  0  0
  2 45  1  0  0  0  0
  2  6  1  0  0  0  0
  2 46  1  0  0  0  0
  3 48  1  0  0  0  0
  3  7  1  0  0  0  0
  3 47  1  0  0  0  0
  4 50  1  0  0  0  0
  4  8  1  0  0  0  0
  4 49  1  0  0  0  0
  5 51  1  0  0  0  0
  5 53  1  0  0  0  0
  5 52  1  0  0  0  0
  6  9  1  0  0  0  0
  6 10  1  0  0  0  0
  7 11  1  0  0  0  0
  7 12  1  0  0  0  0
  8 14  1  0  0  0  0
  8 13  1  0  0  0  0
  9 15  2  0  0  0  0
  9 16  1  0  0  0  0
 10 18  2  0  0  0  0
 10 17  1  0  0  0  0
 11 20  2  0  0  0  0
 11 19  1  0  0  0  0
 12 21  2  0  0  0  0
 12 22  1  0  0  0  0
 13 23  2  0  0  0  0
 13 24  1  0  0  0  0
 14 25  2  0  0  0  0
 14 26  1  0  0  0  0
 15 27  1  0  0  0  0
 15 54  1  0  0  0  0
 16 28  2  0  0  0  0
 16 55  1  0  0  0  0
 17 29  2  0  0  0  0
 17 56  1  0  0  0  0
 18 57  1  0  0  0  0
 18 30  1  0  0  0  0
 19 31  2  0  0  0  0
 19 58  1  0  0  0  0
 20 59  1  0  0  0  0
 20 32  1  0  0  0  0
 21 60  1  0  0  0  0
 21 33  1  0  0  0  0
 22 61  1  0  0  0  0
 22 34  2  0  0  0  0
 23 62  1  0  0  0  0
 23 35  1  0  0  0  0
 24 63  1  0  0  0  0
 24 36  2  0  0  0  0
 25 37  1  0  0  0  0
 25 64  1  0  0  0  0
 26 38  2  0  0  0  0
 26 65  1  0  0  0  0
 27 66  1  0  0  0  0
 27 39  2  0  0  0  0
 28 39  1  0  0  0  0
 28 67  1  0  0  0  0
 29 40  1  0  0  0  0
 29 68  1  0  0  0  0
 30 69  1  0  0  0  0
 30 40  2  0  0  0  0
 31 41  1  0  0  0  0
 31 70  1  0  0  0  0
 32 71  1  0  0  0  0
 32 41  2  0  0  0  0
 33 42  2  0  0  0  0
 33 72  1  0  0  0  0
 34 42  1  0  0  0  0
 34 73  1  0  0  0  0
 35 43  2  0  0  0  0
 35 74  1  0  0  0  0
 36 43  1  0  0  0  0
 36 75  1  0  0  0  0
 37 76  1  0  0  0  0
 37 44  2  0  0  0  0
 38 44  1  0  0  0  0
 38 77  1  0  0  0  0
 39 78  1  0  0  0  0
 40 79  1  0  0  0  0
 41 80  1  0  0  0  0
 42 81  1  0  0  0  0
 43 82  1  0  0  0  0
 44 83  1  0  0  0  0
M  END
