decoy-929
 OpenBabel06062114513D

 50 52  0  0  0  0  0  0  0  0999 V2000
   -2.0920    1.2020   -0.7210 C   0  0  0  0  0  0  0  0  0  0  0  0
   -1.8290   -0.1790   -0.8270 C   0  0  0  0  0  0  0  0  0  0  0  0
   -1.0120    2.0230   -0.3100 C   0  0  0  0  0  0  0  0  0  0  0  0
   -3.3480    1.7010   -0.9370 C   0  0  0  0  0  0  0  0  0  0  0  0
   -1.6290   -1.0530    0.2840 C   0  0  0  0  0  0  0  0  0  0  0  0
   -1.8300   -0.7400   -2.1320 C   0  0  0  0  0  0  0  0  0  0  0  0
    0.1910    2.2160   -1.0580 C   0  0  0  0  0  0  0  0  0  0  0  0
   -1.1580    2.7360    0.9100 C   0  0  0  0  0  0  0  0  0  0  0  0
   -3.6380    3.0720   -0.9950 C   0  0  0  0  0  0  0  0  0  0  0  0
   -4.4690    0.8780   -0.8380 C   0  0  0  0  0  0  0  0  0  0  0  0
   -1.3430   -2.4180    0.0520 C   0  0  0  0  0  0  0  0  0  0  0  0
   -1.7830   -0.5540    1.9530 S   0  0  0  0  0  0  0  0  0  0  0  0
   -1.5590   -2.1010   -2.3450 C   0  0  0  0  0  0  0  0  0  0  0  0
    1.1930    3.0760   -0.5460 C   0  0  0  0  0  0  0  0  0  0  0  0
    0.4450    1.5710   -2.3740 C   0  0  0  0  0  0  0  0  0  0  0  0
   -0.1570    3.5910    1.4170 C   0  0  0  0  0  0  0  0  0  0  0  0
   -4.7530    3.5310   -0.3720 C   0  0  0  0  0  0  0  0  0  0  0  0
   -2.8730    4.0090   -1.8150 C   0  0  0  0  0  0  0  0  0  0  0  0
   -5.6120    1.3170   -0.2530 C   0  0  0  0  0  0  0  0  0  0  0  0
   -1.3000   -2.9380   -1.2510 C   0  0  0  0  0  0  0  0  0  0  0  0
   -3.1470    0.4170    2.1880 O   0  0  0  0  0  0  0  0  0  0  0  0
   -1.9790   -1.8770    2.9870 O   0  0  0  0  0  0  0  0  0  0  0  0
   -0.3920    0.2570    2.4670 O   0  0  0  0  0  0  0  0  0  0  0  0
    1.0300    3.7530    0.6740 C   0  0  0  0  0  0  0  0  0  0  0  0
   -0.3450    4.3100    2.7010 C   0  0  0  0  0  0  0  0  0  0  0  0
   -5.6830    2.6490    0.1120 C   0  0  0  0  0  0  0  0  0  0  0  0
   -6.7550    0.4280   -0.0580 C   0  0  0  0  0  0  0  0  0  0  0  0
    2.0210    4.5680    1.1260 O   0  0  0  0  0  0  0  0  0  0  0  0
   -6.6030    3.0810    0.7960 O   0  0  0  0  0  0  0  0  0  0  0  0
   -2.0230   -0.1550   -2.9500 H   0  0  0  0  0  0  0  0  0  0  0  0
   -2.0230    2.6370    1.4480 H   0  0  0  0  0  0  0  0  0  0  0  0
   -4.4210   -0.0630   -1.1560 H   0  0  0  0  0  0  0  0  0  0  0  0
   -1.1750   -3.0580    0.8310 H   0  0  0  0  0  0  0  0  0  0  0  0
   -1.5500   -2.4800   -3.2940 H   0  0  0  0  0  0  0  0  0  0  0  0
    2.0630    3.2200   -1.0660 H   0  0  0  0  0  0  0  0  0  0  0  0
   -0.4000    1.7370   -3.0430 H   0  0  0  0  0  0  0  0  0  0  0  0
    1.3330    1.9630   -2.8740 H   0  0  0  0  0  0  0  0  0  0  0  0
    0.5980    0.5020   -2.2330 H   0  0  0  0  0  0  0  0  0  0  0  0
   -4.9630    4.5050   -0.3710 H   0  0  0  0  0  0  0  0  0  0  0  0
   -2.1100    3.5090   -2.4120 H   0  0  0  0  0  0  0  0  0  0  0  0
   -3.5340    4.5280   -2.5130 H   0  0  0  0  0  0  0  0  0  0  0  0
   -2.3850    4.7490   -1.1780 H   0  0  0  0  0  0  0  0  0  0  0  0
   -1.1000   -3.9300   -1.4030 H   0  0  0  0  0  0  0  0  0  0  0  0
   -1.3090    4.0890    3.1640 H   0  0  0  0  0  0  0  0  0  0  0  0
    0.4400    4.0210    3.4010 H   0  0  0  0  0  0  0  0  0  0  0  0
   -0.2900    5.3860    2.5310 H   0  0  0  0  0  0  0  0  0  0  0  0
   -6.5690   -0.5890   -0.4120 H   0  0  0  0  0  0  0  0  0  0  0  0
   -6.9980    0.3690    1.0050 H   0  0  0  0  0  0  0  0  0  0  0  0
   -7.6210    0.8170   -0.5960 H   0  0  0  0  0  0  0  0  0  0  0  0
    2.7360    4.5240    0.4570 H   0  0  0  0  0  0  0  0  0  0  0  0
  1  2  1  0  0  0  0
  1  3  1  0  0  0  0
  1  4  1  0  0  0  0
  2  5  2  0  0  0  0
  2  6  1  0  0  0  0
  3  8  2  0  0  0  0
  3  7  1  0  0  0  0
  4 10  1  0  0  0  0
  4  9  1  0  0  0  0
  5 12  1  0  0  0  0
  5 11  1  0  0  0  0
  6 13  2  0  0  0  0
  6 30  1  0  0  0  0
  7 14  2  0  0  0  0
  7 15  1  0  0  0  0
  8 16  1  0  0  0  0
  8 31  1  0  0  0  0
  9 17  2  0  0  0  0
  9 18  1  0  0  0  0
 10 19  2  0  0  0  0
 10 32  1  0  0  0  0
 11 33  1  0  0  0  0
 11 20  2  0  0  0  0
 12 21  2  0  0  0  0
 12 23  2  0  0  0  0
 12 22  1  0  0  0  0
 13 20  1  0  0  0  0
 13 34  1  0  0  0  0
 14 24  1  0  0  0  0
 14 35  1  0  0  0  0
 15 38  1  0  0  0  0
 15 36  1  0  0  0  0
 15 37  1  0  0  0  0
 16 25  1  0  0  0  0
 16 24  2  0  0  0  0
 17 39  1  0  0  0  0
 17 26  1  0  0  0  0
 18 42  1  0  0  0  0
 18 40  1  0  0  0  0
 18 41  1  0  0  0  0
 19 27  1  0  0  0  0
 19 26  1  0  0  0  0
 20 43  1  0  0  0  0
 24 28  1  0  0  0  0
 25 44  1  0  0  0  0
 25 45  1  0  0  0  0
 25 46  1  0  0  0  0
 26 29  2  0  0  0  0
 27 48  1  0  0  0  0
 27 47  1  0  0  0  0
 27 49  1  0  0  0  0
 28 50  1  0  0  0  0
M  END
