
  ACD/Labs06062115573D

 51 55  0  0  0  0  0  0  0  0  1 V2000
   20.3284   -8.1916   -0.0244 C   0  0  0  0  0  0  0  0  0  0  0  0
   20.7365   -9.4750   -0.0401 C   0  0  0  0  0  0  0  0  0  0  0  0
   21.3493   -7.4143    0.3611 C   0  0  0  0  0  0  0  0  0  0  0  0
   19.0540   -7.7451   -0.3486 C   0  0  0  0  0  0  0  0  0  0  0  0
   22.0214   -9.5279    0.3361 C   0  0  0  0  0  0  0  0  0  0  0  0
   19.9530  -10.5690   -0.3841 C   0  0  0  0  0  0  0  0  0  0  0  0
   21.3305   -6.0349    0.4926 C   0  0  0  0  0  0  0  0  0  0  0  0
   22.5223   -8.2088    0.6226 C   0  0  0  0  0  0  0  0  0  0  0  0
   18.1194   -7.4531    0.6699 C   0  0  0  0  0  0  0  0  0  0  0  0
   18.6781   -7.5802   -1.7022 C   0  0  0  0  0  0  0  0  0  0  0  0
   22.7959  -10.6691    0.4602 C   0  0  0  0  0  0  0  0  0  0  0  0
   19.0737  -11.1425    0.5619 C   0  0  0  0  0  0  0  0  0  0  0  0
   20.0250  -11.1175   -1.6845 C   0  0  0  0  0  0  0  0  0  0  0  0
   21.2147   -5.4404    1.7698 C   0  0  0  0  0  0  0  0  0  0  0  0
   21.4097   -5.2082   -0.6507 C   0  0  0  0  0  0  0  0  0  0  0  0
   16.8280   -7.0029    0.3393 C   0  0  0  0  0  0  0  0  0  0  0  0
   17.3863   -7.1294   -2.0291 C   0  0  0  0  0  0  0  0  0  0  0  0
   23.6588  -11.0623   -0.5883 C   0  0  0  0  0  0  0  0  0  0  0  0
   22.7163  -11.4625    1.6265 C   0  0  0  0  0  0  0  0  0  0  0  0
   18.2784  -12.2492    0.2110 C   0  0  0  0  0  0  0  0  0  0  0  0
   19.2286  -12.2245   -2.0324 C   0  0  0  0  0  0  0  0  0  0  0  0
   21.1775   -4.0396    1.8995 C   0  0  0  0  0  0  0  0  0  0  0  0
   21.3723   -3.8078   -0.5178 C   0  0  0  0  0  0  0  0  0  0  0  0
   16.4610   -6.8406   -1.0089 C   0  0  0  0  0  0  0  0  0  0  0  0
   24.4304  -12.2326   -0.4701 C   0  0  0  0  0  0  0  0  0  0  0  0
   23.4902  -12.6333    1.7418 C   0  0  0  0  0  0  0  0  0  0  0  0
   18.3560  -12.7907   -1.0851 C   0  0  0  0  0  0  0  0  0  0  0  0
   21.2558   -3.2233    0.7567 C   0  0  0  0  0  0  0  0  0  0  0  0
   24.3469  -13.0181    0.6941 C   0  0  0  0  0  0  0  0  0  0  0  0
   23.3417   -7.9391   -0.0493 H   0  0  0  0  0  0  0  0  0  0  0  0
   22.8380   -8.1222    1.6663 H   0  0  0  0  0  0  0  0  0  0  0  0
   18.3709   -7.5680    1.6561 H   0  0  0  0  0  0  0  0  0  0  0  0
   19.3406   -7.7863   -2.4554 H   0  0  0  0  0  0  0  0  0  0  0  0
   19.0068  -10.7599    1.5094 H   0  0  0  0  0  0  0  0  0  0  0  0
   20.6548  -10.7163   -2.3852 H   0  0  0  0  0  0  0  0  0  0  0  0
   21.1497   -6.0214    2.6111 H   0  0  0  0  0  0  0  0  0  0  0  0
   21.4911   -5.6176   -1.5851 H   0  0  0  0  0  0  0  0  0  0  0  0
   16.1539   -6.7927    1.0800 H   0  0  0  0  0  0  0  0  0  0  0  0
   17.1196   -7.0114   -3.0086 H   0  0  0  0  0  0  0  0  0  0  0  0
   23.7262  -10.5043   -1.4446 H   0  0  0  0  0  0  0  0  0  0  0  0
   22.0953  -11.1975    2.3960 H   0  0  0  0  0  0  0  0  0  0  0  0
   17.6442  -12.6615    0.8990 H   0  0  0  0  0  0  0  0  0  0  0  0
   19.2843  -12.6185   -2.9741 H   0  0  0  0  0  0  0  0  0  0  0  0
   21.0920   -3.6142    2.8252 H   0  0  0  0  0  0  0  0  0  0  0  0
   21.4281   -3.2135   -1.3476 H   0  0  0  0  0  0  0  0  0  0  0  0
   15.5225   -6.5128   -1.2483 H   0  0  0  0  0  0  0  0  0  0  0  0
   25.0514  -12.5142   -1.2314 H   0  0  0  0  0  0  0  0  0  0  0  0
   23.4285  -13.2055    2.5873 H   0  0  0  0  0  0  0  0  0  0  0  0
   17.7775  -13.5946   -1.3389 H   0  0  0  0  0  0  0  0  0  0  0  0
   21.2276   -2.2053    0.8522 H   0  0  0  0  0  0  0  0  0  0  0  0
   24.9069  -13.8688    0.7789 H   0  0  0  0  0  0  0  0  0  0  0  0
  1  2  1  0  0  0  0
  1  3  2  0  0  0  0
  1  4  1  0  0  0  0
  2  6  1  0  0  0  0
  2  5  2  0  0  0  0
  3  7  1  0  0  0  0
  3  8  1  0  0  0  0
  4  9  2  0  0  0  0
  4 10  1  0  0  0  0
  5 11  1  0  0  0  0
  5  8  1  0  0  0  0
  6 12  2  0  0  0  0
  6 13  1  0  0  0  0
  7 14  2  0  0  0  0
  7 15  1  0  0  0  0
  8 31  1  0  0  0  0
  8 30  1  0  0  0  0
  9 32  1  0  0  0  0
  9 16  1  0  0  0  0
 10 17  2  0  0  0  0
 10 33  1  0  0  0  0
 11 19  2  0  0  0  0
 11 18  1  0  0  0  0
 12 20  1  0  0  0  0
 12 34  1  0  0  0  0
 13 21  2  0  0  0  0
 13 35  1  0  0  0  0
 14 36  1  0  0  0  0
 14 22  1  0  0  0  0
 15 23  2  0  0  0  0
 15 37  1  0  0  0  0
 16 38  1  0  0  0  0
 16 24  2  0  0  0  0
 17 24  1  0  0  0  0
 17 39  1  0  0  0  0
 18 25  2  0  0  0  0
 18 40  1  0  0  0  0
 19 26  1  0  0  0  0
 19 41  1  0  0  0  0
 20 42  1  0  0  0  0
 20 27  2  0  0  0  0
 21 27  1  0  0  0  0
 21 43  1  0  0  0  0
 22 44  1  0  0  0  0
 22 28  2  0  0  0  0
 23 28  1  0  0  0  0
 23 45  1  0  0  0  0
 24 46  1  0  0  0  0
 25 29  1  0  0  0  0
 25 47  1  0  0  0  0
 26 48  1  0  0  0  0
 26 29  2  0  0  0  0
 27 49  1  0  0  0  0
 28 50  1  0  0  0  0
 29 51  1  0  0  0  0
M  END
