decoy-45
 OpenBabel06062114503D

 64 67  0  0  0  0  0  0  0  0999 V2000
    2.9460    1.1220    0.2700 C   0  0  0  0  0  0  0  0  0  0  0  0
    1.6590    1.9300    0.7460 C   0  0  0  0  0  0  0  0  0  0  0  0
    3.2160    0.1050    1.4590 C   0  0  0  0  0  0  0  0  0  0  0  0
    2.5640    0.4020   -0.9370 O   0  0  0  0  0  0  0  0  0  0  0  0
    4.1130    1.9520   -0.1330 C   0  0  0  0  0  0  0  0  0  0  0  0
    0.8470    0.7730    1.4150 C   0  0  0  0  0  0  0  0  0  0  0  0
    0.7460    2.5350   -0.3860 C   0  0  0  0  0  0  0  0  0  0  0  0
    2.0410    3.0920    1.7480 C   0  0  0  0  0  0  0  0  0  0  0  0
    1.8960    0.0580    2.2930 C   0  0  0  0  0  0  0  0  0  0  0  0
    4.4600    0.2840    2.3790 C   0  0  0  0  0  0  0  0  0  0  0  0
    2.2080   -0.8100   -1.4490 C   0  0  0  0  0  0  0  0  0  0  0  0
    4.6550    1.9890   -1.4910 C   0  0  0  0  0  0  0  0  0  0  0  0
    4.6730    2.6470    0.7040 O   0  0  0  0  0  0  0  0  0  0  0  0
   -0.5350    1.2100    2.0150 C   0  0  0  0  0  0  0  0  0  0  0  0
   -0.6960    2.9470    0.0680 C   0  0  0  0  0  0  0  0  0  0  0  0
    1.9300   -0.9080   -2.8920 C   0  0  0  0  0  0  0  0  0  0  0  0
    2.0260   -1.9080   -0.6790 O   0  0  0  0  0  0  0  0  0  0  0  0
    6.0360    3.0580   -1.7570 Cl  0  0  0  0  0  0  0  0  0  0  0  0
   -1.4630    1.8340    0.8910 C   0  0  0  0  0  0  0  0  0  0  0  0
   -1.2520    0.0230    2.7300 C   0  0  0  0  0  0  0  0  0  0  0  0
   -0.6600    4.2150    0.7150 O   0  0  0  0  0  0  0  0  0  0  0  0
    2.9120   -1.8580   -3.6100 C   0  0  0  0  0  0  0  0  0  0  0  0
   -2.9080    2.2210    1.4600 C   0  0  0  0  0  0  0  0  0  0  0  0
   -1.6870    0.8280   -0.0430 F   0  0  0  0  0  0  0  0  0  0  0  0
   -2.6610    0.4100    3.2490 C   0  0  0  0  0  0  0  0  0  0  0  0
   -3.4620    1.0130    2.1670 C   0  0  0  0  0  0  0  0  0  0  0  0
   -3.7820    2.6600    0.3420 C   0  0  0  0  0  0  0  0  0  0  0  0
   -2.9300    3.4200    2.4780 C   0  0  0  0  0  0  0  0  0  0  0  0
   -3.2080   -0.7080    3.8470 F   0  0  0  0  0  0  0  0  0  0  0  0
   -4.6370    0.4640    1.7730 C   0  0  0  0  0  0  0  0  0  0  0  0
   -4.9320    2.0430    0.0270 C   0  0  0  0  0  0  0  0  0  0  0  0
   -5.3600    0.9670    0.7350 C   0  0  0  0  0  0  0  0  0  0  0  0
   -6.4180    0.4340    0.4240 O   0  0  0  0  0  0  0  0  0  0  0  0
    3.3770   -0.8840    1.0320 H   0  0  0  0  0  0  0  0  0  0  0  0
    0.5840    0.0370    0.6470 H   0  0  0  0  0  0  0  0  0  0  0  0
   -0.3510    1.9570    2.7850 H   0  0  0  0  0  0  0  0  0  0  0  0
   -1.2530    3.1400   -0.8540 H   0  0  0  0  0  0  0  0  0  0  0  0
   -2.5500    1.1380    4.0540 H   0  0  0  0  0  0  0  0  0  0  0  0
    1.2440    3.3960   -0.8400 H   0  0  0  0  0  0  0  0  0  0  0  0
    0.6150    1.8060   -1.1880 H   0  0  0  0  0  0  0  0  0  0  0  0
    2.7610    2.7680    2.4940 H   0  0  0  0  0  0  0  0  0  0  0  0
    1.1970    3.4800    2.3030 H   0  0  0  0  0  0  0  0  0  0  0  0
    2.4800    3.9320    1.2070 H   0  0  0  0  0  0  0  0  0  0  0  0
    1.6010   -0.9750    2.5000 H   0  0  0  0  0  0  0  0  0  0  0  0
    1.9930    0.5820    3.2470 H   0  0  0  0  0  0  0  0  0  0  0  0
    5.3760    0.2400    1.7870 H   0  0  0  0  0  0  0  0  0  0  0  0
    4.4990   -0.5230    3.1140 H   0  0  0  0  0  0  0  0  0  0  0  0
    4.4360    1.2290    2.9190 H   0  0  0  0  0  0  0  0  0  0  0  0
    4.9730    0.9840   -1.7740 H   0  0  0  0  0  0  0  0  0  0  0  0
    3.8690    2.3100   -2.1770 H   0  0  0  0  0  0  0  0  0  0  0  0
    0.9080   -1.2680   -3.0310 H   0  0  0  0  0  0  0  0  0  0  0  0
    2.0030    0.0810   -3.3520 H   0  0  0  0  0  0  0  0  0  0  0  0
   -1.3440   -0.8240    2.0420 H   0  0  0  0  0  0  0  0  0  0  0  0
   -0.6480   -0.3060    3.5810 H   0  0  0  0  0  0  0  0  0  0  0  0
   -0.4810    4.0270    1.6560 H   0  0  0  0  0  0  0  0  0  0  0  0
    3.9390   -1.5080   -3.4870 H   0  0  0  0  0  0  0  0  0  0  0  0
    2.6810   -1.8880   -4.6770 H   0  0  0  0  0  0  0  0  0  0  0  0
    2.8300   -2.8710   -3.2100 H   0  0  0  0  0  0  0  0  0  0  0  0
   -3.5260    3.4600   -0.1910 H   0  0  0  0  0  0  0  0  0  0  0  0
   -2.1680    3.3170    3.2490 H   0  0  0  0  0  0  0  0  0  0  0  0
   -3.9010    3.4820    2.9780 H   0  0  0  0  0  0  0  0  0  0  0  0
   -2.7670    4.3830    1.9920 H   0  0  0  0  0  0  0  0  0  0  0  0
   -4.9920   -0.3410    2.2370 H   0  0  0  0  0  0  0  0  0  0  0  0
   -5.4790    2.3910   -0.7290 H   0  0  0  0  0  0  0  0  0  0  0  0
  1  2  1  0  0  0  0
  1  3  1  0  0  0  0
  1  4  1  0  0  0  0
  1  5  1  0  0  0  0
  2  6  1  0  0  0  0
  2  8  1  0  0  0  0
  2  7  1  0  0  0  0
  3  9  1  0  0  0  0
  3 10  1  0  0  0  0
  3 34  1  0  0  0  0
  4 11  1  0  0  0  0
  5 13  2  0  0  0  0
  5 12  1  0  0  0  0
  6 14  1  0  0  0  0
  6  9  1  0  0  0  0
  6 35  1  0  0  0  0
  7 15  1  0  0  0  0
  7 39  1  0  0  0  0
  7 40  1  0  0  0  0
  8 42  1  0  0  0  0
  8 41  1  0  0  0  0
  8 43  1  0  0  0  0
  9 44  1  0  0  0  0
  9 45  1  0  0  0  0
 10 48  1  0  0  0  0
 10 47  1  0  0  0  0
 10 46  1  0  0  0  0
 11 17  2  0  0  0  0
 11 16  1  0  0  0  0
 12 18  1  0  0  0  0
 12 49  1  0  0  0  0
 12 50  1  0  0  0  0
 14 19  1  0  0  0  0
 14 20  1  0  0  0  0
 14 36  1  0  0  0  0
 15 21  1  0  0  0  0
 15 19  1  0  0  0  0
 15 37  1  0  0  0  0
 16 22  1  0  0  0  0
 16 51  1  0  0  0  0
 16 52  1  0  0  0  0
 19 23  1  0  0  0  0
 19 24  1  0  0  0  0
 20 25  1  0  0  0  0
 20 54  1  0  0  0  0
 20 53  1  0  0  0  0
 21 55  1  0  0  0  0
 22 56  1  0  0  0  0
 22 58  1  0  0  0  0
 22 57  1  0  0  0  0
 23 26  1  0  0  0  0
 23 28  1  0  0  0  0
 23 27  1  0  0  0  0
 25 29  1  0  0  0  0
 25 38  1  0  0  0  0
 25 26  1  0  0  0  0
 26 30  2  0  0  0  0
 27 31  2  0  0  0  0
 27 59  1  0  0  0  0
 28 61  1  0  0  0  0
 28 60  1  0  0  0  0
 28 62  1  0  0  0  0
 30 63  1  0  0  0  0
 30 32  1  0  0  0  0
 31 32  1  0  0  0  0
 31 64  1  0  0  0  0
 32 33  2  0  0  0  0
M  END
