decoy-327
 OpenBabel06062114513D

 49 51  0  0  0  0  0  0  0  0999 V2000
    1.1220    1.4670   -0.1030 C   0  0  0  0  0  0  0  0  0  0  0  0
    1.1450    0.1980    0.5170 C   0  0  0  0  0  0  0  0  0  0  0  0
    2.3310    2.1410   -0.3690 C   0  0  0  0  0  0  0  0  0  0  0  0
   -0.0680    1.9980   -0.5190 O   0  0  0  0  0  0  0  0  0  0  0  0
   -0.0300   -0.4400    0.8060 O   0  0  0  0  0  0  0  0  0  0  0  0
    2.3730   -0.3640    0.9110 C   0  0  0  0  0  0  0  0  0  0  0  0
    3.5720    1.5810    0.0160 C   0  0  0  0  0  0  0  0  0  0  0  0
   -0.7840    2.7310    0.4930 C   0  0  0  0  0  0  0  0  0  0  0  0
   -0.5680   -1.2260   -0.2750 C   0  0  0  0  0  0  0  0  0  0  0  0
    3.5760    0.3200    0.6580 C   0  0  0  0  0  0  0  0  0  0  0  0
    4.8520    2.2900   -0.2550 C   0  0  0  0  0  0  0  0  0  0  0  0
   -2.1780    2.9120    0.0230 C   0  0  0  0  0  0  0  0  0  0  0  0
   -1.9830   -1.5300    0.0450 C   0  0  0  0  0  0  0  0  0  0  0  0
    5.5260    2.8160    1.0360 C   0  0  0  0  0  0  0  0  0  0  0  0
   -3.2650    2.2980    0.6900 C   0  0  0  0  0  0  0  0  0  0  0  0
   -2.4400    3.6860   -1.1320 C   0  0  0  0  0  0  0  0  0  0  0  0
   -3.0420   -1.0070   -0.7350 C   0  0  0  0  0  0  0  0  0  0  0  0
   -2.2980   -2.3310    1.1680 C   0  0  0  0  0  0  0  0  0  0  0  0
    6.7670    3.5320    0.7240 *   0  0  0  0  0  0  0  0  0  0  0  0
   -4.5790    2.4510    0.2130 C   0  0  0  0  0  0  0  0  0  0  0  0
   -3.7560    3.8410   -1.6080 C   0  0  0  0  0  0  0  0  0  0  0  0
   -4.3820   -1.2780   -0.4000 C   0  0  0  0  0  0  0  0  0  0  0  0
   -3.6380   -2.6030    1.5020 C   0  0  0  0  0  0  0  0  0  0  0  0
   -4.8250    3.2230   -0.9360 C   0  0  0  0  0  0  0  0  0  0  0  0
   -4.6800   -2.0760    0.7190 C   0  0  0  0  0  0  0  0  0  0  0  0
    2.2970    3.0480   -0.8400 H   0  0  0  0  0  0  0  0  0  0  0  0
    2.3920   -1.2720    1.3820 H   0  0  0  0  0  0  0  0  0  0  0  0
   -0.7740    2.2030    1.4530 H   0  0  0  0  0  0  0  0  0  0  0  0
   -0.3190    3.7090    0.6450 H   0  0  0  0  0  0  0  0  0  0  0  0
   -0.5030   -0.6920   -1.2290 H   0  0  0  0  0  0  0  0  0  0  0  0
   -0.0060   -2.1580   -0.3730 H   0  0  0  0  0  0  0  0  0  0  0  0
    4.4580   -0.1120    0.9430 H   0  0  0  0  0  0  0  0  0  0  0  0
    5.5330    1.6070   -0.7700 H   0  0  0  0  0  0  0  0  0  0  0  0
    4.6860    3.1400   -0.9230 H   0  0  0  0  0  0  0  0  0  0  0  0
    4.8530    3.5010    1.5560 H   0  0  0  0  0  0  0  0  0  0  0  0
    5.7690    1.9880    1.7050 H   0  0  0  0  0  0  0  0  0  0  0  0
   -3.1070    1.7230    1.5220 H   0  0  0  0  0  0  0  0  0  0  0  0
   -1.6730    4.1380   -1.6360 H   0  0  0  0  0  0  0  0  0  0  0  0
   -2.8480   -0.4160   -1.5470 H   0  0  0  0  0  0  0  0  0  0  0  0
   -1.5520   -2.7180    1.7520 H   0  0  0  0  0  0  0  0  0  0  0  0
    7.1930    3.8700    1.5900 H   0  0  0  0  0  0  0  0  0  0  0  0
    7.4180    2.9010    0.2510 H   0  0  0  0  0  0  0  0  0  0  0  0
   -5.3560    1.9980    0.6990 H   0  0  0  0  0  0  0  0  0  0  0  0
   -3.9340    4.4010   -2.4450 H   0  0  0  0  0  0  0  0  0  0  0  0
   -5.1400   -0.8910   -0.9670 H   0  0  0  0  0  0  0  0  0  0  0  0
   -3.8540   -3.1820    2.3170 H   0  0  0  0  0  0  0  0  0  0  0  0
   -5.7800    3.3340   -1.2840 H   0  0  0  0  0  0  0  0  0  0  0  0
   -5.6530   -2.2710    0.9640 H   0  0  0  0  0  0  0  0  0  0  0  0
    6.5620    4.3270    0.1150 H   0  0  0  0  0  0  0  0  0  0  0  0
  1  2  2  0  0  0  0
  1  3  1  0  0  0  0
  1  4  1  0  0  0  0
  2  5  1  0  0  0  0
  2  6  1  0  0  0  0
  3  7  2  0  0  0  0
  3 26  1  0  0  0  0
  4  8  1  0  0  0  0
  5  9  1  0  0  0  0
  6 27  1  0  0  0  0
  6 10  2  0  0  0  0
  7 10  1  0  0  0  0
  7 11  1  0  0  0  0
  8 29  1  0  0  0  0
  8 28  1  0  0  0  0
  8 12  1  0  0  0  0
  9 13  1  0  0  0  0
  9 30  1  0  0  0  0
  9 31  1  0  0  0  0
 10 32  1  0  0  0  0
 11 14  1  0  0  0  0
 11 33  1  0  0  0  0
 11 34  1  0  0  0  0
 12 15  2  0  0  0  0
 12 16  1  0  0  0  0
 13 18  2  0  0  0  0
 13 17  1  0  0  0  0
 14 35  1  0  0  0  0
 14 36  1  0  0  0  0
 14 19  1  0  0  0  0
 15 37  1  0  0  0  0
 15 20  1  0  0  0  0
 16 21  2  0  0  0  0
 16 38  1  0  0  0  0
 17 22  2  0  0  0  0
 17 39  1  0  0  0  0
 18 23  1  0  0  0  0
 18 40  1  0  0  0  0
 19 41  1  0  0  0  0
 19 42  1  0  0  0  0
 19 49  1  0  0  0  0
 20 43  1  0  0  0  0
 20 24  2  0  0  0  0
 21 24  1  0  0  0  0
 21 44  1  0  0  0  0
 22 25  1  0  0  0  0
 22 45  1  0  0  0  0
 23 46  1  0  0  0  0
 23 25  2  0  0  0  0
 24 47  1  0  0  0  0
 25 48  1  0  0  0  0
M  END
