decoy-730
 OpenBabel06062114513D

 67 70  0  0  0  0  0  0  0  0999 V2000
    0.1200    1.3020   -0.6760 C   0  0  0  0  0  0  0  0  0  0  0  0
   -0.2000   -0.2390   -0.6720 C   0  0  0  0  0  0  0  0  0  0  0  0
    1.6330    1.6530   -0.9110 C   0  0  0  0  0  0  0  0  0  0  0  0
   -0.6230    2.2540   -1.6320 C   0  0  0  0  0  0  0  0  0  0  0  0
    0.6300   -0.9240    0.4910 C   0  0  0  0  0  0  0  0  0  0  0  0
   -1.7300   -0.5520   -0.5450 C   0  0  0  0  0  0  0  0  0  0  0  0
    1.5770    3.2330   -0.8890 C   0  0  0  0  0  0  0  0  0  0  0  0
    2.4170    0.9870    0.2730 C   0  0  0  0  0  0  0  0  0  0  0  0
    2.2060    1.1450   -2.2890 C   0  0  0  0  0  0  0  0  0  0  0  0
    0.2440    3.5330   -1.6520 C   0  0  0  0  0  0  0  0  0  0  0  0
    0.3420   -2.4830    0.6590 C   0  0  0  0  0  0  0  0  0  0  0  0
    2.1490   -0.5400    0.4090 C   0  0  0  0  0  0  0  0  0  0  0  0
   -2.0280   -2.0600   -0.3390 C   0  0  0  0  0  0  0  0  0  0  0  0
   -2.4510   -0.1820   -1.7220 O   0  0  0  0  0  0  0  0  0  0  0  0
    2.7920    4.1130   -1.3990 C   0  0  0  0  0  0  0  0  0  0  0  0
   -1.2180   -2.7090    0.8220 C   0  0  0  0  0  0  0  0  0  0  0  0
    1.0400   -3.1270    1.9230 C   0  0  0  0  0  0  0  0  0  0  0  0
    0.8780   -3.2970   -0.5770 C   0  0  0  0  0  0  0  0  0  0  0  0
    2.5040    5.6540   -1.2650 C   0  0  0  0  0  0  0  0  0  0  0  0
    4.1260    3.7650   -0.6700 C   0  0  0  0  0  0  0  0  0  0  0  0
   -1.7870   -2.2660    2.2140 C   0  0  0  0  0  0  0  0  0  0  0  0
    0.5000   -2.6420    3.2920 C   0  0  0  0  0  0  0  0  0  0  0  0
    3.4140    6.5850   -2.1200 C   0  0  0  0  0  0  0  0  0  0  0  0
   -1.0220   -2.8990    3.4020 C   0  0  0  0  0  0  0  0  0  0  0  0
    3.0570    8.0180   -2.0700 C   0  0  0  0  0  0  0  0  0  0  0  0
   -1.5060   -2.3680    4.6350 O   0  0  0  0  0  0  0  0  0  0  0  0
    3.7740    8.9040   -2.7950 O   0  0  0  0  0  0  0  0  0  0  0  0
    2.0490    8.4940   -1.3030 O   0  0  0  0  0  0  0  0  0  0  0  0
   -0.1620    1.6510    0.3280 H   0  0  0  0  0  0  0  0  0  0  0  0
    0.1140   -0.6510   -1.6300 H   0  0  0  0  0  0  0  0  0  0  0  0
    0.2850   -0.4490    1.4110 H   0  0  0  0  0  0  0  0  0  0  0  0
   -1.4120   -3.7860    0.7610 H   0  0  0  0  0  0  0  0  0  0  0  0
   -0.6970    1.8170   -2.6320 H   0  0  0  0  0  0  0  0  0  0  0  0
   -1.6280    2.4840   -1.2680 H   0  0  0  0  0  0  0  0  0  0  0  0
   -2.1520    0.0120    0.2910 H   0  0  0  0  0  0  0  0  0  0  0  0
    1.4150    3.5340    0.1530 H   0  0  0  0  0  0  0  0  0  0  0  0
    3.4910    1.1200    0.1540 H   0  0  0  0  0  0  0  0  0  0  0  0
    2.1400    1.4670    1.2160 H   0  0  0  0  0  0  0  0  0  0  0  0
    1.6970    1.6080   -3.1340 H   0  0  0  0  0  0  0  0  0  0  0  0
    3.2660    1.3780   -2.3780 H   0  0  0  0  0  0  0  0  0  0  0  0
    2.1120    0.0680   -2.4080 H   0  0  0  0  0  0  0  0  0  0  0  0
    0.4360    3.8190   -2.6900 H   0  0  0  0  0  0  0  0  0  0  0  0
   -0.2960    4.3520   -1.1670 H   0  0  0  0  0  0  0  0  0  0  0  0
    2.6630   -0.8630    1.3160 H   0  0  0  0  0  0  0  0  0  0  0  0
    2.6220   -1.0550   -0.4280 H   0  0  0  0  0  0  0  0  0  0  0  0
   -3.0990   -2.1880   -0.1530 H   0  0  0  0  0  0  0  0  0  0  0  0
   -1.8120   -2.5950   -1.2670 H   0  0  0  0  0  0  0  0  0  0  0  0
   -2.5000    0.7930   -1.7130 H   0  0  0  0  0  0  0  0  0  0  0  0
    2.9350    3.9000   -2.4620 H   0  0  0  0  0  0  0  0  0  0  0  0
    0.9000   -4.2130    1.8990 H   0  0  0  0  0  0  0  0  0  0  0  0
    2.1190   -2.9680    1.8990 H   0  0  0  0  0  0  0  0  0  0  0  0
    0.5200   -2.9010   -1.5250 H   0  0  0  0  0  0  0  0  0  0  0  0
    1.9690   -3.2920   -0.6110 H   0  0  0  0  0  0  0  0  0  0  0  0
    0.5620   -4.3410   -0.5230 H   0  0  0  0  0  0  0  0  0  0  0  0
    1.4820    5.8630   -1.5820 H   0  0  0  0  0  0  0  0  0  0  0  0
    2.5790    5.9440   -0.2130 H   0  0  0  0  0  0  0  0  0  0  0  0
    4.4960    2.7920   -0.9820 H   0  0  0  0  0  0  0  0  0  0  0  0
    4.9170    4.4740   -0.9070 H   0  0  0  0  0  0  0  0  0  0  0  0
    3.9840    3.7630    0.4120 H   0  0  0  0  0  0  0  0  0  0  0  0
   -1.7530   -1.1800    2.3180 H   0  0  0  0  0  0  0  0  0  0  0  0
   -2.8370   -2.5650    2.2870 H   0  0  0  0  0  0  0  0  0  0  0  0
    1.0110   -3.1850    4.0910 H   0  0  0  0  0  0  0  0  0  0  0  0
    0.7140   -1.5800    3.4280 H   0  0  0  0  0  0  0  0  0  0  0  0
    4.4490    6.5050   -1.7900 H   0  0  0  0  0  0  0  0  0  0  0  0
    3.3640    6.2660   -3.1640 H   0  0  0  0  0  0  0  0  0  0  0  0
   -1.2040   -3.9780    3.4120 H   0  0  0  0  0  0  0  0  0  0  0  0
   -2.4570   -2.6030    4.6580 H   0  0  0  0  0  0  0  0  0  0  0  0
  1  3  1  0  0  0  0
  1 29  1  0  0  0  0
  1  2  1  0  0  0  0
  1  4  1  0  0  0  0
  2  5  1  0  0  0  0
  2  6  1  0  0  0  0
  2 30  1  0  0  0  0
  3  7  1  0  0  0  0
  3  8  1  0  0  0  0
  3  9  1  0  0  0  0
  4 34  1  0  0  0  0
  4 10  1  0  0  0  0
  4 33  1  0  0  0  0
  5 31  1  0  0  0  0
  5 11  1  0  0  0  0
  5 12  1  0  0  0  0
  6 13  1  0  0  0  0
  6 35  1  0  0  0  0
  6 14  1  0  0  0  0
  7 36  1  0  0  0  0
  7 10  1  0  0  0  0
  7 15  1  0  0  0  0
  8 12  1  0  0  0  0
  8 38  1  0  0  0  0
  8 37  1  0  0  0  0
  9 39  1  0  0  0  0
  9 40  1  0  0  0  0
  9 41  1  0  0  0  0
 10 43  1  0  0  0  0
 10 42  1  0  0  0  0
 11 17  1  0  0  0  0
 11 16  1  0  0  0  0
 11 18  1  0  0  0  0
 12 44  1  0  0  0  0
 12 45  1  0  0  0  0
 13 46  1  0  0  0  0
 13 16  1  0  0  0  0
 13 47  1  0  0  0  0
 14 48  1  0  0  0  0
 15 49  1  0  0  0  0
 15 19  1  0  0  0  0
 15 20  1  0  0  0  0
 16 21  1  0  0  0  0
 16 32  1  0  0  0  0
 17 22  1  0  0  0  0
 17 50  1  0  0  0  0
 17 51  1  0  0  0  0
 18 54  1  0  0  0  0
 18 52  1  0  0  0  0
 18 53  1  0  0  0  0
 19 56  1  0  0  0  0
 19 23  1  0  0  0  0
 19 55  1  0  0  0  0
 20 59  1  0  0  0  0
 20 57  1  0  0  0  0
 20 58  1  0  0  0  0
 21 61  1  0  0  0  0
 21 60  1  0  0  0  0
 21 24  1  0  0  0  0
 22 24  1  0  0  0  0
 22 63  1  0  0  0  0
 22 62  1  0  0  0  0
 23 25  1  0  0  0  0
 23 64  1  0  0  0  0
 23 65  1  0  0  0  0
 24 66  1  0  0  0  0
 24 26  1  0  0  0  0
 25 28  1  0  0  0  0
 25 27  2  0  0  0  0
 26 67  1  0  0  0  0
M  END
