decoy-838
 OpenBabel06062114513D

119121  0  0  0  0  0  0  0  0999 V2000
    1.6940   -1.5530   -1.2550 C   0  0  0  0  0  0  0  0  0  0  0  0
    1.7200   -0.8850   -2.7020 C   0  0  0  0  0  0  0  0  0  0  0  0
    0.9590   -2.8070   -1.3230 O   0  0  0  0  0  0  0  0  0  0  0  0
    3.1140   -1.7140   -0.5600 C   0  0  0  0  0  0  0  0  0  0  0  0
    1.1470    0.5860   -2.7410 C   0  0  0  0  0  0  0  0  0  0  0  0
    1.0820   -1.7660   -3.8210 C   0  0  0  0  0  0  0  0  0  0  0  0
    0.3900   -3.4420   -0.1600 C   0  0  0  0  0  0  0  0  0  0  0  0
    3.9070   -0.3550   -0.4790 C   0  0  0  0  0  0  0  0  0  0  0  0
    3.9370   -2.8350   -1.2680 C   0  0  0  0  0  0  0  0  0  0  0  0
    2.9010   -2.1330    0.7890 O   0  0  0  0  0  0  0  0  0  0  0  0
   -0.3000    0.5220   -2.6400 O   0  0  0  0  0  0  0  0  0  0  0  0
    1.6230    1.4320   -3.9960 C   0  0  0  0  0  0  0  0  0  0  0  0
   -0.8310   -4.2880   -0.6170 C   0  0  0  0  0  0  0  0  0  0  0  0
    1.3710   -4.3170    0.4350 O   0  0  0  0  0  0  0  0  0  0  0  0
    4.9350   -0.0760    0.6760 C   0  0  0  0  0  0  0  0  0  0  0  0
   -0.9840    1.5400   -1.8740 C   0  0  0  0  0  0  0  0  0  0  0  0
    2.3590    2.6630   -3.6110 C   0  0  0  0  0  0  0  0  0  0  0  0
    0.5080    1.7990   -5.0130 C   0  0  0  0  0  0  0  0  0  0  0  0
   -1.4220   -5.1070    0.5730 C   0  0  0  0  0  0  0  0  0  0  0  0
   -1.8300   -3.4400   -1.1770 O   0  0  0  0  0  0  0  0  0  0  0  0
    0.9260   -5.0330    1.6070 C   0  0  0  0  0  0  0  0  0  0  0  0
    5.4140    1.3180    0.6190 C   0  0  0  0  0  0  0  0  0  0  0  0
    6.1310   -1.0650    0.7530 C   0  0  0  0  0  0  0  0  0  0  0  0
   -2.4420    1.7390   -2.3710 C   0  0  0  0  0  0  0  0  0  0  0  0
   -0.9680    1.2240   -0.4670 O   0  0  0  0  0  0  0  0  0  0  0  0
    3.6640    2.8010   -3.9740 O   0  0  0  0  0  0  0  0  0  0  0  0
    1.7450    3.6260   -2.8840 O   0  0  0  0  0  0  0  0  0  0  0  0
   -0.2890   -5.9380    1.2520 C   0  0  0  0  0  0  0  0  0  0  0  0
   -2.6590   -5.8820    0.1810 *   0  0  0  0  0  0  0  0  0  0  0  0
    2.1180   -5.8470    2.1580 C   0  0  0  0  0  0  0  0  0  0  0  0
    6.1730    1.8820   -0.5100 C   0  0  0  0  0  0  0  0  0  0  0  0
    5.1020    2.0670    1.5380 O   0  0  0  0  0  0  0  0  0  0  0  0
   -3.3850    0.5410   -2.0210 C   0  0  0  0  0  0  0  0  0  0  0  0
   -1.7440    0.0660   -0.0830 C   0  0  0  0  0  0  0  0  0  0  0  0
    4.5970    3.8560   -3.6690 C   0  0  0  0  0  0  0  0  0  0  0  0
   -3.5350   -6.2310    1.3410 C   0  0  0  0  0  0  0  0  0  0  0  0
   -2.4480   -7.0700   -0.7000 C   0  0  0  0  0  0  0  0  0  0  0  0
    5.2720    2.8100   -1.4070 C   0  0  0  0  0  0  0  0  0  0  0  0
    7.4850    2.5590   -0.0220 C   0  0  0  0  0  0  0  0  0  0  0  0
   -3.2390    0.2450   -0.4870 C   0  0  0  0  0  0  0  0  0  0  0  0
   -2.8950   -0.5630   -2.8310 O   0  0  0  0  0  0  0  0  0  0  0  0
   -4.8500    0.9530   -2.3810 C   0  0  0  0  0  0  0  0  0  0  0  0
   -1.5500   -0.1360    1.4380 C   0  0  0  0  0  0  0  0  0  0  0  0
    5.7910    3.2440   -2.8350 C   0  0  0  0  0  0  0  0  0  0  0  0
    4.9740    4.5710   -5.0030 C   0  0  0  0  0  0  0  0  0  0  0  0
    4.9100    3.9860   -0.6750 O   0  0  0  0  0  0  0  0  0  0  0  0
   -3.9860   -0.9040   -0.0900 O   0  0  0  0  0  0  0  0  0  0  0  0
   -3.7050   -1.7070   -3.1520 C   0  0  0  0  0  0  0  0  0  0  0  0
    6.4770    2.0750   -3.6120 C   0  0  0  0  0  0  0  0  0  0  0  0
    6.7820    4.2580   -2.6380 O   0  0  0  0  0  0  0  0  0  0  0  0
    3.7800    5.2940   -5.6700 C   0  0  0  0  0  0  0  0  0  0  0  0
    1.1090   -0.8960   -0.6070 H   0  0  0  0  0  0  0  0  0  0  0  0
    2.7680   -0.8040   -2.9950 H   0  0  0  0  0  0  0  0  0  0  0  0
    1.5310    1.0760   -1.8420 H   0  0  0  0  0  0  0  0  0  0  0  0
    1.5700   -2.7420   -3.8550 H   0  0  0  0  0  0  0  0  0  0  0  0
    1.2000   -1.3080   -4.8040 H   0  0  0  0  0  0  0  0  0  0  0  0
    0.0160   -1.9160   -3.6380 H   0  0  0  0  0  0  0  0  0  0  0  0
    0.0610   -2.6890    0.5630 H   0  0  0  0  0  0  0  0  0  0  0  0
    4.4100   -0.1990   -1.4350 H   0  0  0  0  0  0  0  0  0  0  0  0
    3.1610    0.4350   -0.3770 H   0  0  0  0  0  0  0  0  0  0  0  0
    3.3650   -3.7610   -1.3330 H   0  0  0  0  0  0  0  0  0  0  0  0
    4.8500   -3.0640   -0.7250 H   0  0  0  0  0  0  0  0  0  0  0  0
    4.2160   -2.5400   -2.2800 H   0  0  0  0  0  0  0  0  0  0  0  0
    2.3710   -1.4190    1.2020 H   0  0  0  0  0  0  0  0  0  0  0  0
    2.3330    0.8280   -4.5680 H   0  0  0  0  0  0  0  0  0  0  0  0
   -0.4940   -4.9640   -1.4050 H   0  0  0  0  0  0  0  0  0  0  0  0
    4.3880   -0.2010    1.6170 H   0  0  0  0  0  0  0  0  0  0  0  0
   -0.4780    2.5010   -1.9940 H   0  0  0  0  0  0  0  0  0  0  0  0
   -0.0360    0.9040   -5.3210 H   0  0  0  0  0  0  0  0  0  0  0  0
    0.9420    2.2540   -5.9070 H   0  0  0  0  0  0  0  0  0  0  0  0
   -0.2020    2.5060   -4.5820 H   0  0  0  0  0  0  0  0  0  0  0  0
   -1.7370   -4.3550    1.3070 H   0  0  0  0  0  0  0  0  0  0  0  0
   -2.1240   -2.8690   -0.4370 H   0  0  0  0  0  0  0  0  0  0  0  0
    0.6290   -4.3170    2.3820 H   0  0  0  0  0  0  0  0  0  0  0  0
    5.7940   -2.0350    1.1210 H   0  0  0  0  0  0  0  0  0  0  0  0
    6.8890   -0.7020    1.4510 H   0  0  0  0  0  0  0  0  0  0  0  0
    6.5950   -1.2020   -0.2250 H   0  0  0  0  0  0  0  0  0  0  0  0
   -2.8260    2.6540   -1.9080 H   0  0  0  0  0  0  0  0  0  0  0  0
   -2.4320    1.9010   -3.4520 H   0  0  0  0  0  0  0  0  0  0  0  0
   -0.6660   -6.4090    2.1620 H   0  0  0  0  0  0  0  0  0  0  0  0
    0.0470   -6.7250    0.5720 H   0  0  0  0  0  0  0  0  0  0  0  0
   -3.2140   -5.2300   -0.3780 H   0  0  0  0  0  0  0  0  0  0  0  0
    2.4710   -6.5620    1.4120 H   0  0  0  0  0  0  0  0  0  0  0  0
    1.8240   -6.3920    3.0570 H   0  0  0  0  0  0  0  0  0  0  0  0
    2.9400   -5.1760    2.4130 H   0  0  0  0  0  0  0  0  0  0  0  0
    6.4860    1.0400   -1.1280 H   0  0  0  0  0  0  0  0  0  0  0  0
   -1.3460   -0.8170   -0.5860 H   0  0  0  0  0  0  0  0  0  0  0  0
    4.1120    4.6130   -3.0450 H   0  0  0  0  0  0  0  0  0  0  0  0
   -3.0550   -6.9580    2.0000 H   0  0  0  0  0  0  0  0  0  0  0  0
   -4.4800   -6.6520    0.9920 H   0  0  0  0  0  0  0  0  0  0  0  0
   -3.7790   -5.3400    1.9230 H   0  0  0  0  0  0  0  0  0  0  0  0
   -1.8550   -6.8140   -1.5770 H   0  0  0  0  0  0  0  0  0  0  0  0
   -3.4080   -7.4410   -1.0650 H   0  0  0  0  0  0  0  0  0  0  0  0
   -1.9490   -7.8820   -0.1670 H   0  0  0  0  0  0  0  0  0  0  0  0
    4.3400    2.2670   -1.5690 H   0  0  0  0  0  0  0  0  0  0  0  0
    7.2690    3.4580    0.5580 H   0  0  0  0  0  0  0  0  0  0  0  0
    8.1140    2.8350   -0.8680 H   0  0  0  0  0  0  0  0  0  0  0  0
    8.0560    1.8710    0.6060 H   0  0  0  0  0  0  0  0  0  0  0  0
   -3.6390    1.0950    0.0760 H   0  0  0  0  0  0  0  0  0  0  0  0
   -5.1530    1.8470   -1.8310 H   0  0  0  0  0  0  0  0  0  0  0  0
   -5.5520    0.1550   -2.1330 H   0  0  0  0  0  0  0  0  0  0  0  0
   -4.9340    1.1610   -3.4490 H   0  0  0  0  0  0  0  0  0  0  0  0
   -0.4870   -0.2370    1.6670 H   0  0  0  0  0  0  0  0  0  0  0  0
   -2.0600   -1.0420    1.7730 H   0  0  0  0  0  0  0  0  0  0  0  0
   -1.9450    0.7180    1.9910 H   0  0  0  0  0  0  0  0  0  0  0  0
    5.7490    5.3170   -4.8130 H   0  0  0  0  0  0  0  0  0  0  0  0
    5.3680    3.8480   -5.7190 H   0  0  0  0  0  0  0  0  0  0  0  0
    4.4020    3.6680    0.0990 H   0  0  0  0  0  0  0  0  0  0  0  0
   -4.9220   -0.6810   -0.2720 H   0  0  0  0  0  0  0  0  0  0  0  0
   -4.1240   -2.1760   -2.2630 H   0  0  0  0  0  0  0  0  0  0  0  0
   -3.0750   -2.4370   -3.6600 H   0  0  0  0  0  0  0  0  0  0  0  0
   -4.5120   -1.4290   -3.8300 H   0  0  0  0  0  0  0  0  0  0  0  0
    5.8090    1.2150   -3.6820 H   0  0  0  0  0  0  0  0  0  0  0  0
    7.3960    1.7630   -3.1150 H   0  0  0  0  0  0  0  0  0  0  0  0
    6.7580    2.3770   -4.6190 H   0  0  0  0  0  0  0  0  0  0  0  0
    7.1390    4.4550   -3.5290 H   0  0  0  0  0  0  0  0  0  0  0  0
    2.9990    4.5800   -5.9370 H   0  0  0  0  0  0  0  0  0  0  0  0
    4.1150    5.7960   -6.5790 H   0  0  0  0  0  0  0  0  0  0  0  0
    3.3610    6.0420   -4.9940 H   0  0  0  0  0  0  0  0  0  0  0  0
  1  2  1  0  0  0  0
  1 52  1  0  0  0  0
  1  3  1  0  0  0  0
  1  4  1  0  0  0  0
  2  5  1  0  0  0  0
  2  6  1  0  0  0  0
  2 53  1  0  0  0  0
  3  7  1  0  0  0  0
  4  8  1  0  0  0  0
  4 10  1  0  0  0  0
  4  9  1  0  0  0  0
  5 12  1  0  0  0  0
  5 11  1  0  0  0  0
  5 54  1  0  0  0  0
  6 57  1  0  0  0  0
  6 55  1  0  0  0  0
  6 56  1  0  0  0  0
  7 13  1  0  0  0  0
  7 14  1  0  0  0  0
  7 58  1  0  0  0  0
  8 60  1  0  0  0  0
  8 15  1  0  0  0  0
  8 59  1  0  0  0  0
  9 62  1  0  0  0  0
  9 61  1  0  0  0  0
  9 63  1  0  0  0  0
 10 64  1  0  0  0  0
 11 16  1  0  0  0  0
 12 65  1  0  0  0  0
 12 17  1  0  0  0  0
 12 18  1  0  0  0  0
 13 19  1  0  0  0  0
 13 20  1  0  0  0  0
 13 66  1  0  0  0  0
 14 21  1  0  0  0  0
 15 23  1  0  0  0  0
 15 67  1  0  0  0  0
 15 22  1  0  0  0  0
 16 68  1  0  0  0  0
 16 25  1  0  0  0  0
 16 24  1  0  0  0  0
 17 27  2  0  0  0  0
 17 26  1  0  0  0  0
 18 71  1  0  0  0  0
 18 69  1  0  0  0  0
 18 70  1  0  0  0  0
 19 28  1  0  0  0  0
 19 72  1  0  0  0  0
 19 29  1  0  0  0  0
 20 73  1  0  0  0  0
 21 30  1  0  0  0  0
 21 74  1  0  0  0  0
 21 28  1  0  0  0  0
 22 32  2  0  0  0  0
 22 31  1  0  0  0  0
 23 75  1  0  0  0  0
 23 76  1  0  0  0  0
 23 77  1  0  0  0  0
 24 33  1  0  0  0  0
 24 78  1  0  0  0  0
 24 79  1  0  0  0  0
 25 34  1  0  0  0  0
 26 35  1  0  0  0  0
 28 80  1  0  0  0  0
 28 81  1  0  0  0  0
 29 36  1  0  0  0  0
 29 37  1  0  0  0  0
 29 82  1  0  0  0  0
 30 85  1  0  0  0  0
 30 84  1  0  0  0  0
 30 83  1  0  0  0  0
 31 38  1  0  0  0  0
 31 39  1  0  0  0  0
 31 86  1  0  0  0  0
 33 40  1  0  0  0  0
 33 41  1  0  0  0  0
 33 42  1  0  0  0  0
 34 40  1  0  0  0  0
 34 43  1  0  0  0  0
 34 87  1  0  0  0  0
 35 88  1  0  0  0  0
 35 44  1  0  0  0  0
 35 45  1  0  0  0  0
 36 91  1  0  0  0  0
 36 89  1  0  0  0  0
 36 90  1  0  0  0  0
 37 94  1  0  0  0  0
 37 92  1  0  0  0  0
 37 93  1  0  0  0  0
 38 44  1  0  0  0  0
 38 46  1  0  0  0  0
 38 95  1  0  0  0  0
 39 96  1  0  0  0  0
 39 98  1  0  0  0  0
 39 97  1  0  0  0  0
 40 47  1  0  0  0  0
 40 99  1  0  0  0  0
 41 48  1  0  0  0  0
 42101  1  0  0  0  0
 42100  1  0  0  0  0
 42102  1  0  0  0  0
 43103  1  0  0  0  0
 43104  1  0  0  0  0
 43105  1  0  0  0  0
 44 50  1  0  0  0  0
 44 49  1  0  0  0  0
 45106  1  0  0  0  0
 45 51  1  0  0  0  0
 45107  1  0  0  0  0
 46108  1  0  0  0  0
 47109  1  0  0  0  0
 48110  1  0  0  0  0
 48111  1  0  0  0  0
 48112  1  0  0  0  0
 49114  1  0  0  0  0
 49113  1  0  0  0  0
 49115  1  0  0  0  0
 50116  1  0  0  0  0
 51119  1  0  0  0  0
 51117  1  0  0  0  0
 51118  1  0  0  0  0
M  END
