
  ACD/Labs06062115553D

 38 41  0  0  0  0  0  0  0  0  1 V2000
   21.4296   -8.0807    1.4130 C   0  0  0  0  0  0  0  0  0  0  0  0
   22.3045   -7.0569    1.4513 C   0  0  0  0  0  0  0  0  0  0  0  0
   21.7890   -9.4172    1.3656 C   0  0  0  0  0  0  0  0  0  0  0  0
   20.1726   -7.7974    1.4206 N   0  0  0  0  0  0  0  0  0  0  0  0
   23.6829   -7.1874    1.4511 C   0  0  0  0  0  0  0  0  0  0  0  0
   21.8005   -5.8717    1.4913 N   0  0  0  0  0  0  0  0  0  0  0  0
   21.7847  -10.2002    2.5436 C   0  0  0  0  0  0  0  0  0  0  0  0
   22.1796  -10.0109    0.1431 C   0  0  0  0  0  0  0  0  0  0  0  0
   19.7127   -6.5937    1.4615 C   0  0  0  0  0  0  0  0  0  0  0  0
   24.4169   -7.0149    0.2557 C   0  0  0  0  0  0  0  0  0  0  0  0
   24.3708   -7.5118    2.6431 C   0  0  0  0  0  0  0  0  0  0  0  0
   20.5870   -5.6468    1.4966 N   0  0  0  0  0  0  0  0  0  0  0  0
   22.1678  -11.5537    2.4980 C   0  0  0  0  0  0  0  0  0  0  0  0
   22.5624  -11.3643    0.1006 C   0  0  0  0  0  0  0  0  0  0  0  0
   18.3469   -6.3457    1.4707 C   0  0  0  0  0  0  0  0  0  0  0  0
   25.8157   -7.1667    0.2520 C   0  0  0  0  0  0  0  0  0  0  0  0
   25.7702   -7.6632    2.6376 C   0  0  0  0  0  0  0  0  0  0  0  0
   22.5567  -12.1356    1.2776 C   0  0  0  0  0  0  0  0  0  0  0  0
   17.7885   -5.0982    1.0952 C   0  0  0  0  0  0  0  0  0  0  0  0
   17.4936   -7.3375    1.8536 N   0  0  0  0  0  0  0  0  0  0  0  0
   26.4929   -7.4911    1.4426 C   0  0  0  0  0  0  0  0  0  0  0  0
   16.3936   -4.9203    1.1291 C   0  0  0  0  0  0  0  0  0  0  0  0
   16.1439   -7.2009    1.8983 C   0  0  0  0  0  0  0  0  0  0  0  0
   15.5592   -5.9763    1.5335 C   0  0  0  0  0  0  0  0  0  0  0  0
   21.5097   -9.7897    3.4400 H   0  0  0  0  0  0  0  0  0  0  0  0
   22.1909   -9.4625   -0.7211 H   0  0  0  0  0  0  0  0  0  0  0  0
   23.9385   -6.7839   -0.6196 H   0  0  0  0  0  0  0  0  0  0  0  0
   23.8597   -7.6438    3.5210 H   0  0  0  0  0  0  0  0  0  0  0  0
   22.1654  -12.1145    3.3525 H   0  0  0  0  0  0  0  0  0  0  0  0
   22.8447  -11.7878   -0.7856 H   0  0  0  0  0  0  0  0  0  0  0  0
   26.3417   -7.0424   -0.6162 H   0  0  0  0  0  0  0  0  0  0  0  0
   26.2626   -7.8998    3.5011 H   0  0  0  0  0  0  0  0  0  0  0  0
   22.8351  -13.1186    1.2458 H   0  0  0  0  0  0  0  0  0  0  0  0
   18.3827   -4.3220    0.7930 H   0  0  0  0  0  0  0  0  0  0  0  0
   27.5087   -7.6017    1.4386 H   0  0  0  0  0  0  0  0  0  0  0  0
   15.9855   -4.0225    0.8584 H   0  0  0  0  0  0  0  0  0  0  0  0
   15.5630   -7.9871    2.1952 H   0  0  0  0  0  0  0  0  0  0  0  0
   14.5441   -5.8574    1.5613 H   0  0  0  0  0  0  0  0  0  0  0  0
  1  3  1  0  0  0  0
  1  2  1  0  0  0  0
  1  4  2  0  0  0  0
  2  6  2  0  0  0  0
  2  5  1  0  0  0  0
  3  8  2  0  0  0  0
  3  7  1  0  0  0  0
  4  9  1  0  0  0  0
  5 10  2  0  0  0  0
  5 11  1  0  0  0  0
  6 12  1  0  0  0  0
  7 13  2  0  0  0  0
  7 25  1  0  0  0  0
  8 26  1  0  0  0  0
  8 14  1  0  0  0  0
  9 12  2  0  0  0  0
  9 15  1  0  0  0  0
 10 16  1  0  0  0  0
 10 27  1  0  0  0  0
 11 17  2  0  0  0  0
 11 28  1  0  0  0  0
 13 18  1  0  0  0  0
 13 29  1  0  0  0  0
 14 30  1  0  0  0  0
 14 18  2  0  0  0  0
 15 19  2  0  0  0  0
 15 20  1  0  0  0  0
 16 31  1  0  0  0  0
 16 21  2  0  0  0  0
 17 21  1  0  0  0  0
 17 32  1  0  0  0  0
 18 33  1  0  0  0  0
 19 34  1  0  0  0  0
 19 22  1  0  0  0  0
 20 23  2  0  0  0  0
 21 35  1  0  0  0  0
 22 36  1  0  0  0  0
 22 24  2  0  0  0  0
 23 24  1  0  0  0  0
 23 37  1  0  0  0  0
 24 38  1  0  0  0  0
M  END
