decoy-986
 OpenBabel06062114513D

 28 28  0  0  0  0  0  0  0  0999 V2000
   -2.6020   -0.1960   -0.0420 C   0  0  0  0  0  0  0  0  0  0  0  0
   -3.7470   -0.9970    0.1820 C   0  0  0  0  0  0  0  0  0  0  0  0
   -1.4620   -0.2550    0.8270 C   0  0  0  0  0  0  0  0  0  0  0  0
   -2.4750    0.7650   -1.0980 C   0  0  0  0  0  0  0  0  0  0  0  0
   -4.3800   -0.5440    1.4540 C   0  0  0  0  0  0  0  0  0  0  0  0
   -3.3470   -2.4190    0.2930 C   0  0  0  0  0  0  0  0  0  0  0  0
   -4.7550   -0.9260   -0.9010 C   0  0  0  0  0  0  0  0  0  0  0  0
   -0.3050    0.5290    0.6500 C   0  0  0  0  0  0  0  0  0  0  0  0
   -1.3260    1.5550   -1.2880 C   0  0  0  0  0  0  0  0  0  0  0  0
   -5.6850   -1.2140    1.9770 C   0  0  0  0  0  0  0  0  0  0  0  0
   -0.2380    1.4350   -0.4160 C   0  0  0  0  0  0  0  0  0  0  0  0
    0.7490    0.4300    1.5000 O   0  0  0  0  0  0  0  0  0  0  0  0
   -1.4590   -0.8800    1.6330 H   0  0  0  0  0  0  0  0  0  0  0  0
   -3.2250    0.9220   -1.7690 H   0  0  0  0  0  0  0  0  0  0  0  0
   -3.6800   -0.6360    2.2920 H   0  0  0  0  0  0  0  0  0  0  0  0
   -4.6140    0.5260    1.3820 H   0  0  0  0  0  0  0  0  0  0  0  0
   -2.7610   -2.7340   -0.5780 H   0  0  0  0  0  0  0  0  0  0  0  0
   -4.2020   -3.1000    0.3490 H   0  0  0  0  0  0  0  0  0  0  0  0
   -2.7500   -2.6400    1.1800 H   0  0  0  0  0  0  0  0  0  0  0  0
   -5.1990    0.0710   -0.9870 H   0  0  0  0  0  0  0  0  0  0  0  0
   -5.5910   -1.6160   -0.7600 H   0  0  0  0  0  0  0  0  0  0  0  0
   -4.3190   -1.1850   -1.8730 H   0  0  0  0  0  0  0  0  0  0  0  0
   -1.2850    2.2230   -2.0630 H   0  0  0  0  0  0  0  0  0  0  0  0
   -6.5200   -1.0360    1.3000 H   0  0  0  0  0  0  0  0  0  0  0  0
   -5.9500   -0.7870    2.9470 H   0  0  0  0  0  0  0  0  0  0  0  0
   -5.5520   -2.2880    2.1090 H   0  0  0  0  0  0  0  0  0  0  0  0
    0.5950    2.0110   -0.5550 H   0  0  0  0  0  0  0  0  0  0  0  0
    0.4980   -0.2490    2.1610 H   0  0  0  0  0  0  0  0  0  0  0  0
  1  2  1  0  0  0  0
  1  3  2  0  0  0  0
  1  4  1  0  0  0  0
  2  6  1  0  0  0  0
  2  5  1  0  0  0  0
  2  7  1  0  0  0  0
  3 13  1  0  0  0  0
  3  8  1  0  0  0  0
  4  9  2  0  0  0  0
  4 14  1  0  0  0  0
  5 10  1  0  0  0  0
  5 15  1  0  0  0  0
  5 16  1  0  0  0  0
  6 18  1  0  0  0  0
  6 19  1  0  0  0  0
  6 17  1  0  0  0  0
  7 21  1  0  0  0  0
  7 20  1  0  0  0  0
  7 22  1  0  0  0  0
  8 12  1  0  0  0  0
  8 11  2  0  0  0  0
  9 11  1  0  0  0  0
  9 23  1  0  0  0  0
 10 26  1  0  0  0  0
 10 25  1  0  0  0  0
 10 24  1  0  0  0  0
 11 27  1  0  0  0  0
 12 28  1  0  0  0  0
M  END
