decoy-368
 OpenBabel06062114513D

 29 31  0  0  0  0  0  0  0  0999 V2000
    0.0900    1.4030    0.0530 C   0  0  0  0  0  0  0  0  0  0  0  0
    0.0760   -0.0210   -0.0470 C   0  0  0  0  0  0  0  0  0  0  0  0
    1.3190    2.0830    0.0610 C   0  0  0  0  0  0  0  0  0  0  0  0
   -1.1380    2.1040    0.1100 C   0  0  0  0  0  0  0  0  0  0  0  0
    1.3030   -0.7020   -0.0840 C   0  0  0  0  0  0  0  0  0  0  0  0
   -1.1710   -0.6990   -0.1180 C   0  0  0  0  0  0  0  0  0  0  0  0
    2.4920    1.4130   -0.3120 C   0  0  0  0  0  0  0  0  0  0  0  0
    1.3870    3.2220    0.5090 O   0  0  0  0  0  0  0  0  0  0  0  0
   -2.3700    1.4240    0.0730 C   0  0  0  0  0  0  0  0  0  0  0  0
    2.4800   -0.0110   -0.3910 C   0  0  0  0  0  0  0  0  0  0  0  0
    1.3940   -1.8060    0.4390 O   0  0  0  0  0  0  0  0  0  0  0  0
   -2.3840    0.0190   -0.0450 C   0  0  0  0  0  0  0  0  0  0  0  0
   -1.2440   -2.0480   -0.2780 O   0  0  0  0  0  0  0  0  0  0  0  0
    3.6820    2.1120   -0.6330 C   0  0  0  0  0  0  0  0  0  0  0  0
   -3.8610    2.3270    0.1510 S   0  0  0  0  0  0  0  0  0  0  0  0
    3.6550   -0.6940   -0.7930 C   0  0  0  0  0  0  0  0  0  0  0  0
   -3.5760   -0.6370   -0.1030 O   0  0  0  0  0  0  0  0  0  0  0  0
    4.8410    1.4180   -1.0220 C   0  0  0  0  0  0  0  0  0  0  0  0
   -4.7550    2.0520   -1.2560 O   0  0  0  0  0  0  0  0  0  0  0  0
   -4.7820    1.7770    1.4570 O   0  0  0  0  0  0  0  0  0  0  0  0
   -3.6240    3.9920    0.3240 O   0  0  0  0  0  0  0  0  0  0  0  0
    4.8270    0.0170   -1.1030 C   0  0  0  0  0  0  0  0  0  0  0  0
   -1.1370    3.1240    0.1720 H   0  0  0  0  0  0  0  0  0  0  0  0
   -0.4470   -2.3000   -0.7880 H   0  0  0  0  0  0  0  0  0  0  0  0
    3.7160    3.1340   -0.5940 H   0  0  0  0  0  0  0  0  0  0  0  0
    3.6660   -1.7140   -0.8680 H   0  0  0  0  0  0  0  0  0  0  0  0
   -3.3680   -1.5940   -0.1320 H   0  0  0  0  0  0  0  0  0  0  0  0
    5.6930    1.9340   -1.2520 H   0  0  0  0  0  0  0  0  0  0  0  0
    5.6690   -0.4860   -1.3910 H   0  0  0  0  0  0  0  0  0  0  0  0
  1  3  1  0  0  0  0
  1  4  2  0  0  0  0
  1  2  1  0  0  0  0
  2  5  1  0  0  0  0
  2  6  2  0  0  0  0
  3  8  2  0  0  0  0
  3  7  1  0  0  0  0
  4 23  1  0  0  0  0
  4  9  1  0  0  0  0
  5 11  2  0  0  0  0
  5 10  1  0  0  0  0
  6 12  1  0  0  0  0
  6 13  1  0  0  0  0
  7 10  2  0  0  0  0
  7 14  1  0  0  0  0
  9 15  1  0  0  0  0
  9 12  2  0  0  0  0
 10 16  1  0  0  0  0
 12 17  1  0  0  0  0
 13 24  1  0  0  0  0
 14 25  1  0  0  0  0
 14 18  2  0  0  0  0
 15 21  2  0  0  0  0
 15 20  1  0  0  0  0
 15 19  2  0  0  0  0
 16 22  2  0  0  0  0
 16 26  1  0  0  0  0
 17 27  1  0  0  0  0
 18 22  1  0  0  0  0
 18 28  1  0  0  0  0
 22 29  1  0  0  0  0
M  END
