
  ACD/Labs06062115093D

 64 65  0  0  0  0  0  0  0  0  2 V2000
   21.7335  -14.5861   -3.7264 C   0  0  0  0  0  0  0  0  0  0  0  0
   21.0713  -15.6775   -4.3635 C   0  0  0  0  0  0  0  0  0  0  0  0
   21.7179  -13.2906   -4.2930 C   0  0  0  0  0  0  0  0  0  0  0  0
   22.4278  -14.7628   -2.5081 C   0  0  0  0  0  0  0  0  0  0  0  0
   21.6956  -16.9398   -4.4874 C   0  0  0  0  0  0  0  0  0  0  0  0
   19.7684  -15.5332   -4.8926 C   0  0  0  0  0  0  0  0  0  0  0  0
   22.3793  -12.2309   -3.6476 C   0  0  0  0  0  0  0  0  0  0  0  0
   23.0716  -13.6719   -1.8984 C   0  0  0  0  0  0  0  0  0  0  0  0
   21.0224  -18.0010   -5.1206 C   0  0  0  0  0  0  0  0  0  0  0  0
   19.1348  -16.6243   -5.5146 C   0  0  0  0  0  0  0  0  0  0  0  0
   23.0435  -12.4237   -2.4651 N   0  3  0  0  0  0  0  0  0  0  0  0
   19.7576  -17.8401   -5.6228 N   0  3  0  0  0  0  0  0  0  0  0  0
   23.7188  -11.3231   -1.8092 C   0  0  0  0  0  0  0  0  0  0  0  0
   19.0766  -18.9410   -6.2703 C   0  0  0  0  0  0  0  0  0  0  0  0
   22.9532  -10.8309   -0.5516 C   0  0  0  0  0  0  0  0  0  0  0  0
   17.9490  -19.5355   -5.3826 C   0  0  0  0  0  0  0  0  0  0  0  0
   23.6517   -9.6339    0.1474 C   0  0  0  0  0  0  0  0  0  0  0  0
   17.2252  -20.7339   -6.0534 C   0  0  0  0  0  0  0  0  0  0  0  0
   22.8844   -9.1470    1.4047 C   0  0  0  0  0  0  0  0  0  0  0  0
   16.0978  -21.3226   -5.1651 C   0  0  0  0  0  0  0  0  0  0  0  0
   23.5823   -7.9494    2.1032 C   0  0  0  0  0  0  0  0  0  0  0  0
   15.3752  -22.5223   -5.8348 C   0  0  0  0  0  0  0  0  0  0  0  0
   22.8152   -7.4638    3.3605 C   0  0  0  0  0  0  0  0  0  0  0  0
   14.2483  -23.1102   -4.9461 C   0  0  0  0  0  0  0  0  0  0  0  0
   23.5074   -6.2713    4.0578 C   0  0  0  0  0  0  0  0  0  0  0  0
   13.5267  -24.3043   -5.6106 C   0  0  0  0  0  0  0  0  0  0  0  0
   21.2437  -13.1117   -5.1819 H   0  0  0  0  0  0  0  0  0  0  0  0
   22.4577  -15.6769   -2.0482 H   0  0  0  0  0  0  0  0  0  0  0  0
   22.6439  -17.0937   -4.1358 H   0  0  0  0  0  0  0  0  0  0  0  0
   19.2653  -14.6449   -4.8171 H   0  0  0  0  0  0  0  0  0  0  0  0
   22.3476  -11.3050   -4.0857 H   0  0  0  0  0  0  0  0  0  0  0  0
   23.5666  -13.8329   -1.0169 H   0  0  0  0  0  0  0  0  0  0  0  0
   21.5043  -18.9016   -5.1915 H   0  0  0  0  0  0  0  0  0  0  0  0
   18.1914  -16.4877   -5.8882 H   0  0  0  0  0  0  0  0  0  0  0  0
   24.7288  -11.6334   -1.5258 H   0  0  0  0  0  0  0  0  0  0  0  0
   23.8382  -10.4719   -2.4879 H   0  0  0  0  0  0  0  0  0  0  0  0
   18.6537  -18.5980   -7.2192 H   0  0  0  0  0  0  0  0  0  0  0  0
   19.7741  -19.7478   -6.5182 H   0  0  0  0  0  0  0  0  0  0  0  0
   21.9441  -10.5321   -0.8495 H   0  0  0  0  0  0  0  0  0  0  0  0
   22.8659  -11.6544    0.1627 H   0  0  0  0  0  0  0  0  0  0  0  0
   18.3851  -19.8655   -4.4360 H   0  0  0  0  0  0  0  0  0  0  0  0
   17.2135  -18.7561   -5.1648 H   0  0  0  0  0  0  0  0  0  0  0  0
   24.6615   -9.9337    0.4394 H   0  0  0  0  0  0  0  0  0  0  0  0
   23.7332   -8.8059   -0.5624 H   0  0  0  0  0  0  0  0  0  0  0  0
   16.7945  -20.4027   -7.0031 H   0  0  0  0  0  0  0  0  0  0  0  0
   17.9572  -21.5177   -6.2664 H   0  0  0  0  0  0  0  0  0  0  0  0
   21.8741   -8.8480    1.1123 H   0  0  0  0  0  0  0  0  0  0  0  0
   22.8040   -9.9748    2.1155 H   0  0  0  0  0  0  0  0  0  0  0  0
   16.5295  -21.6530   -4.2157 H   0  0  0  0  0  0  0  0  0  0  0  0
   15.3654  -20.5396   -4.9525 H   0  0  0  0  0  0  0  0  0  0  0  0
   24.5930   -8.2476    2.3960 H   0  0  0  0  0  0  0  0  0  0  0  0
   23.6631   -7.1214    1.3941 H   0  0  0  0  0  0  0  0  0  0  0  0
   14.9435  -22.1918   -6.7842 H   0  0  0  0  0  0  0  0  0  0  0  0
   16.1072  -23.3067   -6.0466 H   0  0  0  0  0  0  0  0  0  0  0  0
   21.8041   -7.1602    3.0745 H   0  0  0  0  0  0  0  0  0  0  0  0
   22.7334   -8.2865    4.0771 H   0  0  0  0  0  0  0  0  0  0  0  0
   14.6731  -23.4457   -3.9965 H   0  0  0  0  0  0  0  0  0  0  0  0
   13.5106  -22.3321   -4.7331 H   0  0  0  0  0  0  0  0  0  0  0  0
   22.9293   -5.9689    4.9336 H   0  0  0  0  0  0  0  0  0  0  0  0
   24.5119   -6.5511    4.3835 H   0  0  0  0  0  0  0  0  0  0  0  0
   23.5784   -5.4206    3.3773 H   0  0  0  0  0  0  0  0  0  0  0  0
   12.7462  -24.6792   -4.9462 H   0  0  0  0  0  0  0  0  0  0  0  0
   13.0649  -23.9942   -6.5503 H   0  0  0  0  0  0  0  0  0  0  0  0
   14.2329  -25.1127   -5.8104 H   0  0  0  0  0  0  0  0  0  0  0  0
  1  4  1  0  0  0  0
  1  3  2  0  0  0  0
  1  2  1  0  0  0  0
  2  6  2  0  0  0  0
  2  5  1  0  0  0  0
  3  7  1  0  0  0  0
  3 27  1  0  0  0  0
  4  8  2  0  0  0  0
  4 28  1  0  0  0  0
  5 29  1  0  0  0  0
  5  9  2  0  0  0  0
  6 10  1  0  0  0  0
  6 30  1  0  0  0  0
  7 31  1  0  0  0  0
  7 11  2  0  0  0  0
  8 11  1  0  0  0  0
  8 32  1  0  0  0  0
  9 33  1  0  0  0  0
  9 12  1  0  0  0  0
 10 12  2  0  0  0  0
 10 34  1  0  0  0  0
 11 13  1  0  0  0  0
 12 14  1  0  0  0  0
 13 35  1  0  0  0  0
 13 36  1  0  0  0  0
 13 15  1  0  0  0  0
 14 37  1  0  0  0  0
 14 38  1  0  0  0  0
 14 16  1  0  0  0  0
 15 17  1  0  0  0  0
 15 39  1  0  0  0  0
 15 40  1  0  0  0  0
 16 18  1  0  0  0  0
 16 41  1  0  0  0  0
 16 42  1  0  0  0  0
 17 43  1  0  0  0  0
 17 44  1  0  0  0  0
 17 19  1  0  0  0  0
 18 45  1  0  0  0  0
 18 46  1  0  0  0  0
 18 20  1  0  0  0  0
 19 21  1  0  0  0  0
 19 47  1  0  0  0  0
 19 48  1  0  0  0  0
 20 22  1  0  0  0  0
 20 49  1  0  0  0  0
 20 50  1  0  0  0  0
 21 51  1  0  0  0  0
 21 52  1  0  0  0  0
 21 23  1  0  0  0  0
 22 53  1  0  0  0  0
 22 54  1  0  0  0  0
 22 24  1  0  0  0  0
 23 25  1  0  0  0  0
 23 55  1  0  0  0  0
 23 56  1  0  0  0  0
 24 26  1  0  0  0  0
 24 57  1  0  0  0  0
 24 58  1  0  0  0  0
 25 60  1  0  0  0  0
 25 61  1  0  0  0  0
 25 59  1  0  0  0  0
 26 63  1  0  0  0  0
 26 64  1  0  0  0  0
 26 62  1  0  0  0  0
M  CHG  2  11   1  12   1
M  END
