decoy-397
 OpenBabel06062114513D

 17 17  0  0  0  0  0  0  0  0999 V2000
   -0.8240   -0.2530    0.2470 C   0  0  0  0  0  0  0  0  0  0  0  0
   -0.2930    0.7210   -0.6430 C   0  0  0  0  0  0  0  0  0  0  0  0
    0.0900   -1.0760    0.9550 C   0  0  0  0  0  0  0  0  0  0  0  0
   -2.2230   -0.4330    0.4360 C   0  0  0  0  0  0  0  0  0  0  0  0
    1.0980    0.8400   -0.8260 C   0  0  0  0  0  0  0  0  0  0  0  0
   -1.0710    1.5870   -1.3430 O   0  0  0  0  0  0  0  0  0  0  0  0
    1.4820   -0.9500    0.7750 C   0  0  0  0  0  0  0  0  0  0  0  0
   -3.1460    0.1310   -0.3750 O   0  0  0  0  0  0  0  0  0  0  0  0
   -2.7140   -1.2490    1.3970 O   0  0  0  0  0  0  0  0  0  0  0  0
    1.9840    0.0100   -0.1210 C   0  0  0  0  0  0  0  0  0  0  0  0
    2.3290   -1.7440    1.4540 N   0  0  0  0  0  0  0  0  0  0  0  0
   -0.2520   -1.7890    1.6060 H   0  0  0  0  0  0  0  0  0  0  0  0
    1.4730    1.5420   -1.4700 H   0  0  0  0  0  0  0  0  0  0  0  0
   -1.7880    1.8480   -0.7290 H   0  0  0  0  0  0  0  0  0  0  0  0
    2.9920    0.1120   -0.2620 H   0  0  0  0  0  0  0  0  0  0  0  0
    3.2870   -1.6560    1.3280 H   0  0  0  0  0  0  0  0  0  0  0  0
    1.9850   -2.4080    2.0720 H   0  0  0  0  0  0  0  0  0  0  0  0
  1  4  1  0  0  0  0
  1  3  2  0  0  0  0
  1  2  1  0  0  0  0
  2  5  2  0  0  0  0
  2  6  1  0  0  0  0
  3 12  1  0  0  0  0
  3  7  1  0  0  0  0
  4  9  1  0  0  0  0
  4  8  2  0  0  0  0
  5 10  1  0  0  0  0
  5 13  1  0  0  0  0
  6 14  1  0  0  0  0
  7 11  1  0  0  0  0
  7 10  2  0  0  0  0
 10 15  1  0  0  0  0
 11 17  1  0  0  0  0
 11 16  1  0  0  0  0
M  END
