decoy-1013
 OpenBabel06062114513D

 50 53  0  0  0  0  0  0  0  0999 V2000
   -0.2400    1.1430    0.5810 C   0  0  0  0  0  0  0  0  0  0  0  0
   -0.1490   -0.4500    0.4950 C   0  0  0  0  0  0  0  0  0  0  0  0
    1.1720    1.8350    0.3810 C   0  0  0  0  0  0  0  0  0  0  0  0
   -1.0580    1.7740    1.7750 C   0  0  0  0  0  0  0  0  0  0  0  0
    0.5280   -0.7560   -0.8070 C   0  0  0  0  0  0  0  0  0  0  0  0
   -1.5700   -1.1490    0.5430 C   0  0  0  0  0  0  0  0  0  0  0  0
    0.6710   -1.0970    1.6740 C   0  0  0  0  0  0  0  0  0  0  0  0
    1.0030    3.3880    0.3490 C   0  0  0  0  0  0  0  0  0  0  0  0
    1.8660    1.3150   -0.9170 C   0  0  0  0  0  0  0  0  0  0  0  0
   -1.0500    3.3380    1.7980 C   0  0  0  0  0  0  0  0  0  0  0  0
   -0.6590    1.2890    3.0530 O   0  0  0  0  0  0  0  0  0  0  0  0
    1.8860   -0.2310   -1.0110 C   0  0  0  0  0  0  0  0  0  0  0  0
   -0.1290   -1.2900   -1.8650 C   0  0  0  0  0  0  0  0  0  0  0  0
   -2.3270   -1.0720   -0.8030 C   0  0  0  0  0  0  0  0  0  0  0  0
    0.3780    3.9620    1.6570 C   0  0  0  0  0  0  0  0  0  0  0  0
    2.2170    4.3060    0.0840 C   0  0  0  0  0  0  0  0  0  0  0  0
   -1.4650   -1.5530   -1.8670 C   0  0  0  0  0  0  0  0  0  0  0  0
    0.3990    5.4840    1.3100 C   0  0  0  0  0  0  0  0  0  0  0  0
    1.2130    3.7230    2.9730 C   0  0  0  0  0  0  0  0  0  0  0  0
    1.7470    5.7030    0.5670 C   0  0  0  0  0  0  0  0  0  0  0  0
   -1.9870   -1.9880   -2.8860 O   0  0  0  0  0  0  0  0  0  0  0  0
    0.2560    6.3570    2.4300 O   0  0  0  0  0  0  0  0  0  0  0  0
   -0.8220    1.4400   -0.3000 H   0  0  0  0  0  0  0  0  0  0  0  0
    1.8290    1.5820    1.2120 H   0  0  0  0  0  0  0  0  0  0  0  0
    0.3130    3.5860   -0.4850 H   0  0  0  0  0  0  0  0  0  0  0  0
   -2.1090    1.4940    1.6670 H   0  0  0  0  0  0  0  0  0  0  0  0
   -1.4530   -2.2160    0.7670 H   0  0  0  0  0  0  0  0  0  0  0  0
   -2.1960   -0.7440    1.3380 H   0  0  0  0  0  0  0  0  0  0  0  0
    1.5940   -0.5640    1.8900 H   0  0  0  0  0  0  0  0  0  0  0  0
    0.0950   -1.1330    2.5980 H   0  0  0  0  0  0  0  0  0  0  0  0
    0.9400   -2.1290    1.4300 H   0  0  0  0  0  0  0  0  0  0  0  0
    1.3450    1.7090   -1.7950 H   0  0  0  0  0  0  0  0  0  0  0  0
    2.8970    1.6780   -0.9530 H   0  0  0  0  0  0  0  0  0  0  0  0
   -1.6780    3.6850    0.9710 H   0  0  0  0  0  0  0  0  0  0  0  0
   -1.5230    3.6950    2.7170 H   0  0  0  0  0  0  0  0  0  0  0  0
   -1.0260    0.3840    3.1080 H   0  0  0  0  0  0  0  0  0  0  0  0
    2.5670   -0.6400   -0.2630 H   0  0  0  0  0  0  0  0  0  0  0  0
    2.3080   -0.5040   -1.9840 H   0  0  0  0  0  0  0  0  0  0  0  0
    0.3680   -1.4560   -2.7120 H   0  0  0  0  0  0  0  0  0  0  0  0
   -3.2330   -1.6830   -0.7400 H   0  0  0  0  0  0  0  0  0  0  0  0
   -2.6270   -0.0430   -1.0130 H   0  0  0  0  0  0  0  0  0  0  0  0
    3.0860    3.9670    0.6540 H   0  0  0  0  0  0  0  0  0  0  0  0
    2.4800    4.3230   -0.9780 H   0  0  0  0  0  0  0  0  0  0  0  0
   -0.4180    5.7210    0.6200 H   0  0  0  0  0  0  0  0  0  0  0  0
    1.4050    2.6700    3.1620 H   0  0  0  0  0  0  0  0  0  0  0  0
    2.1830    4.2210    2.9350 H   0  0  0  0  0  0  0  0  0  0  0  0
    0.6750    4.1190    3.8360 H   0  0  0  0  0  0  0  0  0  0  0  0
    2.4950    6.1370    1.2360 H   0  0  0  0  0  0  0  0  0  0  0  0
    1.6080    6.3810   -0.2800 H   0  0  0  0  0  0  0  0  0  0  0  0
   -0.6240    6.1430    2.8060 H   0  0  0  0  0  0  0  0  0  0  0  0
  1  3  1  0  0  0  0
  1  2  1  0  0  0  0
  1  4  1  0  0  0  0
  1 23  1  0  0  0  0
  2  6  1  0  0  0  0
  2  7  1  0  0  0  0
  2  5  1  0  0  0  0
  3  8  1  0  0  0  0
  3 24  1  0  0  0  0
  3  9  1  0  0  0  0
  4 10  1  0  0  0  0
  4 11  1  0  0  0  0
  4 26  1  0  0  0  0
  5 12  1  0  0  0  0
  5 13  2  0  0  0  0
  6 27  1  0  0  0  0
  6 28  1  0  0  0  0
  6 14  1  0  0  0  0
  7 29  1  0  0  0  0
  7 30  1  0  0  0  0
  7 31  1  0  0  0  0
  8 15  1  0  0  0  0
  8 16  1  0  0  0  0
  8 25  1  0  0  0  0
  9 12  1  0  0  0  0
  9 32  1  0  0  0  0
  9 33  1  0  0  0  0
 10 35  1  0  0  0  0
 10 15  1  0  0  0  0
 10 34  1  0  0  0  0
 11 36  1  0  0  0  0
 12 37  1  0  0  0  0
 12 38  1  0  0  0  0
 13 17  1  0  0  0  0
 13 39  1  0  0  0  0
 14 40  1  0  0  0  0
 14 17  1  0  0  0  0
 14 41  1  0  0  0  0
 15 18  1  0  0  0  0
 15 19  1  0  0  0  0
 16 20  1  0  0  0  0
 16 42  1  0  0  0  0
 16 43  1  0  0  0  0
 17 21  2  0  0  0  0
 18 44  1  0  0  0  0
 18 22  1  0  0  0  0
 18 20  1  0  0  0  0
 19 45  1  0  0  0  0
 19 47  1  0  0  0  0
 19 46  1  0  0  0  0
 20 48  1  0  0  0  0
 20 49  1  0  0  0  0
 22 50  1  0  0  0  0
M  END
