decoy-442
 OpenBabel06062114513D

 32 34  0  0  0  0  0  0  0  0999 V2000
    0.1880    1.1150   -0.3430 C   0  0  0  0  0  0  0  0  0  0  0  0
   -0.0280    0.1710    0.6550 C   0  0  0  0  0  0  0  0  0  0  0  0
    1.4340    1.7510   -0.4800 C   0  0  0  0  0  0  0  0  0  0  0  0
   -0.9440    1.2470   -1.0500 N   0  0  0  0  0  0  0  0  0  0  0  0
   -1.2910   -0.2470    0.5290 N   0  0  0  0  0  0  0  0  0  0  0  0
    0.9870   -0.1780    1.5590 C   0  0  0  0  0  0  0  0  0  0  0  0
    2.4790    1.4140    0.4180 C   0  0  0  0  0  0  0  0  0  0  0  0
   -1.8500    0.4070   -0.5090 C   0  0  0  0  0  0  0  0  0  0  0  0
    2.2440    0.4510    1.4350 C   0  0  0  0  0  0  0  0  0  0  0  0
    3.7160    2.0220    0.3010 C   0  0  0  0  0  0  0  0  0  0  0  0
   -3.1040    0.3020   -0.9990 N   0  0  0  0  0  0  0  0  0  0  0  0
    4.8610    1.3250   -0.0580 C   0  0  0  0  0  0  0  0  0  0  0  0
    3.7800    3.2220    0.5330 O   0  0  0  0  0  0  0  0  0  0  0  0
   -4.0900   -0.5000   -0.5410 C   0  0  0  0  0  0  0  0  0  0  0  0
    6.1550    1.6980    0.3120 C   0  0  0  0  0  0  0  0  0  0  0  0
    4.8320   -0.0990   -1.0600 S   0  0  0  0  0  0  0  0  0  0  0  0
   -5.2810   -0.4420   -1.1900 O   0  0  0  0  0  0  0  0  0  0  0  0
   -3.9260   -1.3340    0.5140 O   0  0  0  0  0  0  0  0  0  0  0  0
    7.1210    0.8420   -0.1930 C   0  0  0  0  0  0  0  0  0  0  0  0
    6.5590   -0.1750   -0.9490 C   0  0  0  0  0  0  0  0  0  0  0  0
   -6.4510   -1.2000   -0.8750 C   0  0  0  0  0  0  0  0  0  0  0  0
    1.5720    2.4390   -1.2240 H   0  0  0  0  0  0  0  0  0  0  0  0
   -1.7250   -0.9080    1.0900 H   0  0  0  0  0  0  0  0  0  0  0  0
    0.8170   -0.8720    2.2890 H   0  0  0  0  0  0  0  0  0  0  0  0
    2.9880    0.2000    2.0930 H   0  0  0  0  0  0  0  0  0  0  0  0
   -3.3200    0.8630   -1.7600 H   0  0  0  0  0  0  0  0  0  0  0  0
    6.3790    2.5080    0.8960 H   0  0  0  0  0  0  0  0  0  0  0  0
    8.1230    0.9470   -0.0260 H   0  0  0  0  0  0  0  0  0  0  0  0
    7.1090   -0.9090   -1.3970 H   0  0  0  0  0  0  0  0  0  0  0  0
   -7.2440   -0.9330   -1.5740 H   0  0  0  0  0  0  0  0  0  0  0  0
   -6.2460   -2.2680   -0.9640 H   0  0  0  0  0  0  0  0  0  0  0  0
   -6.7840   -0.9760    0.1400 H   0  0  0  0  0  0  0  0  0  0  0  0
  1  2  2  0  0  0  0
  1  3  1  0  0  0  0
  1  4  1  0  0  0  0
  2  6  1  0  0  0  0
  2  5  1  0  0  0  0
  3  7  2  0  0  0  0
  3 22  1  0  0  0  0
  4  8  2  0  0  0  0
  5 23  1  0  0  0  0
  5  8  1  0  0  0  0
  6 24  1  0  0  0  0
  6  9  2  0  0  0  0
  7  9  1  0  0  0  0
  7 10  1  0  0  0  0
  8 11  1  0  0  0  0
  9 25  1  0  0  0  0
 10 13  2  0  0  0  0
 10 12  1  0  0  0  0
 11 14  1  0  0  0  0
 11 26  1  0  0  0  0
 12 15  2  0  0  0  0
 12 16  1  0  0  0  0
 14 18  2  0  0  0  0
 14 17  1  0  0  0  0
 15 27  1  0  0  0  0
 15 19  1  0  0  0  0
 16 20  1  0  0  0  0
 17 21  1  0  0  0  0
 19 28  1  0  0  0  0
 19 20  2  0  0  0  0
 20 29  1  0  0  0  0
 21 32  1  0  0  0  0
 21 30  1  0  0  0  0
 21 31  1  0  0  0  0
M  END
