decoy-388
 OpenBabel06062114513D

 56 55  0  0  0  0  0  0  0  0999 V2000
    0.1230    1.5240    0.0080 C   0  0  0  0  0  0  0  0  0  0  0  0
    0.0770   -0.0270   -0.0010 C   0  0  0  0  0  0  0  0  0  0  0  0
    1.5730    2.0800   -0.0040 C   0  0  0  0  0  0  0  0  0  0  0  0
   -1.3720   -0.5820    0.0110 C   0  0  0  0  0  0  0  0  0  0  0  0
    1.6190    3.6390    0.0060 C   0  0  0  0  0  0  0  0  0  0  0  0
   -1.4180   -2.1330    0.0020 C   0  0  0  0  0  0  0  0  0  0  0  0
    2.9730    4.3340   -0.0050 C   0  0  0  0  0  0  0  0  0  0  0  0
   -2.8670   -2.6870    0.0140 C   0  0  0  0  0  0  0  0  0  0  0  0
    2.7400    5.8290    0.0070 C   0  0  0  0  0  0  0  0  0  0  0  0
    3.7850    3.9730    1.2150 C   0  0  0  0  0  0  0  0  0  0  0  0
    3.7580    3.9880   -1.2470 C   0  0  0  0  0  0  0  0  0  0  0  0
   -2.9130   -4.2380    0.0050 C   0  0  0  0  0  0  0  0  0  0  0  0
   -4.3630   -4.7920    0.0170 C   0  0  0  0  0  0  0  0  0  0  0  0
   -4.4090   -6.3440    0.0080 C   0  0  0  0  0  0  0  0  0  0  0  0
   -5.8580   -6.8980    0.0200 C   0  0  0  0  0  0  0  0  0  0  0  0
   -5.9040   -8.4490    0.0110 C   0  0  0  0  0  0  0  0  0  0  0  0
   -7.3530   -9.0020    0.0230 C   0  0  0  0  0  0  0  0  0  0  0  0
   -7.4020  -10.5460    0.0150 C   0  0  0  0  0  0  0  0  0  0  0  0
   -0.4100    1.9000   -0.8690 H   0  0  0  0  0  0  0  0  0  0  0  0
   -0.3910    1.8890    0.9020 H   0  0  0  0  0  0  0  0  0  0  0  0
    0.5910   -0.3930   -0.8940 H   0  0  0  0  0  0  0  0  0  0  0  0
    0.6100   -0.4040    0.8770 H   0  0  0  0  0  0  0  0  0  0  0  0
    2.0960    1.6940    0.8730 H   0  0  0  0  0  0  0  0  0  0  0  0
    2.0770    1.7050   -0.8970 H   0  0  0  0  0  0  0  0  0  0  0  0
   -1.8860   -0.2160    0.9050 H   0  0  0  0  0  0  0  0  0  0  0  0
   -1.9050   -0.2050   -0.8670 H   0  0  0  0  0  0  0  0  0  0  0  0
    1.0420    3.9760   -0.8630 H   0  0  0  0  0  0  0  0  0  0  0  0
    1.0610    3.9640    0.8910 H   0  0  0  0  0  0  0  0  0  0  0  0
   -0.9040   -2.4990   -0.8910 H   0  0  0  0  0  0  0  0  0  0  0  0
   -0.8860   -2.5100    0.8800 H   0  0  0  0  0  0  0  0  0  0  0  0
   -3.3810   -2.3210    0.9070 H   0  0  0  0  0  0  0  0  0  0  0  0
   -3.4000   -2.3100   -0.8640 H   0  0  0  0  0  0  0  0  0  0  0  0
    3.6820    6.3860    0.0010 H   0  0  0  0  0  0  0  0  0  0  0  0
    2.1660    6.1510   -0.8670 H   0  0  0  0  0  0  0  0  0  0  0  0
    2.1850    6.1400    0.8970 H   0  0  0  0  0  0  0  0  0  0  0  0
    4.0630    2.9170    1.2180 H   0  0  0  0  0  0  0  0  0  0  0  0
    4.7150    4.5460    1.2610 H   0  0  0  0  0  0  0  0  0  0  0  0
    3.2290    4.1720    2.1350 H   0  0  0  0  0  0  0  0  0  0  0  0
    3.1820    4.2000   -2.1520 H   0  0  0  0  0  0  0  0  0  0  0  0
    4.6870    4.5620   -1.3060 H   0  0  0  0  0  0  0  0  0  0  0  0
    4.0360    2.9330   -1.2690 H   0  0  0  0  0  0  0  0  0  0  0  0
   -2.4000   -4.6040   -0.8880 H   0  0  0  0  0  0  0  0  0  0  0  0
   -2.3810   -4.6150    0.8830 H   0  0  0  0  0  0  0  0  0  0  0  0
   -4.8760   -4.4260    0.9100 H   0  0  0  0  0  0  0  0  0  0  0  0
   -4.8950   -4.4160   -0.8610 H   0  0  0  0  0  0  0  0  0  0  0  0
   -3.8950   -6.7100   -0.8850 H   0  0  0  0  0  0  0  0  0  0  0  0
   -3.8760   -6.7200    0.8870 H   0  0  0  0  0  0  0  0  0  0  0  0
   -6.3720   -6.5320    0.9130 H   0  0  0  0  0  0  0  0  0  0  0  0
   -6.3900   -6.5210   -0.8580 H   0  0  0  0  0  0  0  0  0  0  0  0
   -5.3900   -8.8160   -0.8820 H   0  0  0  0  0  0  0  0  0  0  0  0
   -5.3720   -8.8260    0.8900 H   0  0  0  0  0  0  0  0  0  0  0  0
   -7.8720   -8.6420    0.9160 H   0  0  0  0  0  0  0  0  0  0  0  0
   -7.8900   -8.6320   -0.8550 H   0  0  0  0  0  0  0  0  0  0  0  0
   -8.4410  -10.8820    0.0230 H   0  0  0  0  0  0  0  0  0  0  0  0
   -6.9170  -10.9380   -0.8820 H   0  0  0  0  0  0  0  0  0  0  0  0
   -6.8990  -10.9480    0.8960 H   0  0  0  0  0  0  0  0  0  0  0  0
  1 20  1  0  0  0  0
  1  2  1  0  0  0  0
  1  3  1  0  0  0  0
  1 19  1  0  0  0  0
  2  4  1  0  0  0  0
  2 22  1  0  0  0  0
  2 21  1  0  0  0  0
  3  5  1  0  0  0  0
  3 23  1  0  0  0  0
  3 24  1  0  0  0  0
  4 25  1  0  0  0  0
  4  6  1  0  0  0  0
  4 26  1  0  0  0  0
  5 28  1  0  0  0  0
  5  7  1  0  0  0  0
  5 27  1  0  0  0  0
  6  8  1  0  0  0  0
  6 30  1  0  0  0  0
  6 29  1  0  0  0  0
  7  9  1  0  0  0  0
  7 10  1  0  0  0  0
  7 11  1  0  0  0  0
  8 31  1  0  0  0  0
  8 12  1  0  0  0  0
  8 32  1  0  0  0  0
  9 35  1  0  0  0  0
  9 33  1  0  0  0  0
  9 34  1  0  0  0  0
 10 36  1  0  0  0  0
 10 37  1  0  0  0  0
 10 38  1  0  0  0  0
 11 39  1  0  0  0  0
 11 40  1  0  0  0  0
 11 41  1  0  0  0  0
 12 13  1  0  0  0  0
 12 43  1  0  0  0  0
 12 42  1  0  0  0  0
 13 44  1  0  0  0  0
 13 14  1  0  0  0  0
 13 45  1  0  0  0  0
 14 15  1  0  0  0  0
 14 47  1  0  0  0  0
 14 46  1  0  0  0  0
 15 48  1  0  0  0  0
 15 16  1  0  0  0  0
 15 49  1  0  0  0  0
 16 17  1  0  0  0  0
 16 51  1  0  0  0  0
 16 50  1  0  0  0  0
 17 52  1  0  0  0  0
 17 18  1  0  0  0  0
 17 53  1  0  0  0  0
 18 54  1  0  0  0  0
 18 56  1  0  0  0  0
 18 55  1  0  0  0  0
M  END
