decoy-874
 OpenBabel06062114513D

 42 45  0  0  0  0  0  0  0  0999 V2000
    0.2760    0.1300    0.7950 C   0  0  0  0  0  0  0  0  0  0  0  0
    1.0230    0.8370   -0.3470 C   0  0  0  0  0  0  0  0  0  0  0  0
    0.0060    1.0020    1.9590 N   0  0  0  0  0  0  0  0  0  0  0  0
    1.2320   -1.0120    1.1540 C   0  0  0  0  0  0  0  0  0  0  0  0
   -1.1520   -0.2910    0.4450 C   0  0  0  0  0  0  0  0  0  0  0  0
    1.1950    0.2620   -1.6510 C   0  0  0  0  0  0  0  0  0  0  0  0
    1.6890    2.0760   -0.1180 C   0  0  0  0  0  0  0  0  0  0  0  0
    0.2410    0.7710    3.2720 C   0  0  0  0  0  0  0  0  0  0  0  0
   -0.6700    2.1820    1.9320 C   0  0  0  0  0  0  0  0  0  0  0  0
    0.9610   -2.3880    0.9150 C   0  0  0  0  0  0  0  0  0  0  0  0
    2.5090   -0.7090    1.7070 C   0  0  0  0  0  0  0  0  0  0  0  0
   -1.8830    0.2630   -0.6430 C   0  0  0  0  0  0  0  0  0  0  0  0
   -1.8850   -1.1300    1.3320 C   0  0  0  0  0  0  0  0  0  0  0  0
    1.9100    0.9440   -2.6600 C   0  0  0  0  0  0  0  0  0  0  0  0
    0.5930   -1.2550   -2.1220 Cl  0  0  0  0  0  0  0  0  0  0  0  0
    2.4020    2.7480   -1.1240 C   0  0  0  0  0  0  0  0  0  0  0  0
   -0.2610    1.8320    4.0090 C   0  0  0  0  0  0  0  0  0  0  0  0
   -0.8270    2.6960    3.1620 N   0  0  0  0  0  0  0  0  0  0  0  0
    1.8870   -3.3970    1.2400 C   0  0  0  0  0  0  0  0  0  0  0  0
    3.4390   -1.7110    2.0370 C   0  0  0  0  0  0  0  0  0  0  0  0
   -3.2230   -0.0850   -0.8930 C   0  0  0  0  0  0  0  0  0  0  0  0
   -3.2240   -1.4830    1.0910 C   0  0  0  0  0  0  0  0  0  0  0  0
    2.5030    2.1870   -2.4020 C   0  0  0  0  0  0  0  0  0  0  0  0
    3.1250   -3.0590    1.8070 C   0  0  0  0  0  0  0  0  0  0  0  0
   -3.8920   -0.9690   -0.0320 C   0  0  0  0  0  0  0  0  0  0  0  0
    1.6970    2.5060    0.8060 H   0  0  0  0  0  0  0  0  0  0  0  0
    0.6790   -0.0540    3.6850 H   0  0  0  0  0  0  0  0  0  0  0  0
   -1.0280    2.6350    1.0890 H   0  0  0  0  0  0  0  0  0  0  0  0
    0.0930   -2.6820    0.4700 H   0  0  0  0  0  0  0  0  0  0  0  0
    2.7740    0.2620    1.8850 H   0  0  0  0  0  0  0  0  0  0  0  0
   -1.4550    0.9490   -1.2650 H   0  0  0  0  0  0  0  0  0  0  0  0
   -1.4400   -1.4950    2.1770 H   0  0  0  0  0  0  0  0  0  0  0  0
    2.0160    0.5350   -3.5930 H   0  0  0  0  0  0  0  0  0  0  0  0
    2.8610    3.6400   -0.9220 H   0  0  0  0  0  0  0  0  0  0  0  0
   -0.2300    1.9260    5.0250 H   0  0  0  0  0  0  0  0  0  0  0  0
    1.6620   -4.3770    1.0550 H   0  0  0  0  0  0  0  0  0  0  0  0
    4.3440   -1.4590    2.4410 H   0  0  0  0  0  0  0  0  0  0  0  0
   -3.7170    0.3190   -1.6920 H   0  0  0  0  0  0  0  0  0  0  0  0
   -3.7160   -2.1030    1.7380 H   0  0  0  0  0  0  0  0  0  0  0  0
    3.0250    2.6710   -3.1360 H   0  0  0  0  0  0  0  0  0  0  0  0
    3.7990   -3.7910    2.0420 H   0  0  0  0  0  0  0  0  0  0  0  0
   -4.8670   -1.2180   -0.2070 H   0  0  0  0  0  0  0  0  0  0  0  0
  1  4  1  0  0  0  0
  1  3  1  0  0  0  0
  1  2  1  0  0  0  0
  1  5  1  0  0  0  0
  2  7  2  0  0  0  0
  2  6  1  0  0  0  0
  3  8  1  0  0  0  0
  3  9  1  0  0  0  0
  4 11  2  0  0  0  0
  4 10  1  0  0  0  0
  5 13  2  0  0  0  0
  5 12  1  0  0  0  0
  6 14  2  0  0  0  0
  6 15  1  0  0  0  0
  7 26  1  0  0  0  0
  7 16  1  0  0  0  0
  8 27  1  0  0  0  0
  8 17  2  0  0  0  0
  9 18  2  0  0  0  0
  9 28  1  0  0  0  0
 10 19  2  0  0  0  0
 10 29  1  0  0  0  0
 11 30  1  0  0  0  0
 11 20  1  0  0  0  0
 12 21  2  0  0  0  0
 12 31  1  0  0  0  0
 13 32  1  0  0  0  0
 13 22  1  0  0  0  0
 14 23  1  0  0  0  0
 14 33  1  0  0  0  0
 16 34  1  0  0  0  0
 16 23  2  0  0  0  0
 17 35  1  0  0  0  0
 17 18  1  0  0  0  0
 19 24  1  0  0  0  0
 19 36  1  0  0  0  0
 20 37  1  0  0  0  0
 20 24  2  0  0  0  0
 21 25  1  0  0  0  0
 21 38  1  0  0  0  0
 22 39  1  0  0  0  0
 22 25  2  0  0  0  0
 23 40  1  0  0  0  0
 24 41  1  0  0  0  0
 25 42  1  0  0  0  0
M  END
