decoy-92
 OpenBabel06062114503D

 47 50  0  0  0  0  0  0  0  0999 V2000
   -0.2970    1.4460    0.0900 C   0  0  0  0  0  0  0  0  0  0  0  0
   -0.8290    0.0460   -0.2320 C   0  0  0  0  0  0  0  0  0  0  0  0
    1.2220    1.6060    0.1450 C   0  0  0  0  0  0  0  0  0  0  0  0
   -0.6260    2.4440   -1.0250 C   0  0  0  0  0  0  0  0  0  0  0  0
   -0.9540    1.7340    1.4060 C   0  0  0  0  0  0  0  0  0  0  0  0
   -2.1010   -0.1300   -0.8470 C   0  0  0  0  0  0  0  0  0  0  0  0
   -0.1750   -1.1360    0.2130 C   0  0  0  0  0  0  0  0  0  0  0  0
    2.1080    0.7900   -0.6150 C   0  0  0  0  0  0  0  0  0  0  0  0
    1.8120    2.7280    0.7910 C   0  0  0  0  0  0  0  0  0  0  0  0
   -0.9830    3.7990   -0.7690 C   0  0  0  0  0  0  0  0  0  0  0  0
   -0.4560    2.0860   -2.3930 C   0  0  0  0  0  0  0  0  0  0  0  0
   -0.6340    1.1040    2.6120 C   0  0  0  0  0  0  0  0  0  0  0  0
   -2.0890    2.1980    1.4030 O   0  0  0  0  0  0  0  0  0  0  0  0
   -2.6380   -1.4070   -1.0920 C   0  0  0  0  0  0  0  0  0  0  0  0
   -0.7060   -2.4170   -0.0270 C   0  0  0  0  0  0  0  0  0  0  0  0
    3.5000    0.9950   -0.6130 C   0  0  0  0  0  0  0  0  0  0  0  0
    3.2020    2.9430    0.8000 C   0  0  0  0  0  0  0  0  0  0  0  0
   -1.2270    4.7130   -1.8090 C   0  0  0  0  0  0  0  0  0  0  0  0
   -0.7000    2.9940   -3.4380 C   0  0  0  0  0  0  0  0  0  0  0  0
   -1.2910   -0.0920    2.9990 C   0  0  0  0  0  0  0  0  0  0  0  0
    0.2620    1.6970    3.5330 C   0  0  0  0  0  0  0  0  0  0  0  0
   -1.9340   -2.5530   -0.6910 C   0  0  0  0  0  0  0  0  0  0  0  0
    4.0500    2.0640    0.1110 C   0  0  0  0  0  0  0  0  0  0  0  0
   -1.0940    4.3090   -3.1460 C   0  0  0  0  0  0  0  0  0  0  0  0
   -0.9970   -0.7180    4.2240 C   0  0  0  0  0  0  0  0  0  0  0  0
    0.5570    1.0730    4.7600 C   0  0  0  0  0  0  0  0  0  0  0  0
   -0.0650   -0.1400    5.1020 C   0  0  0  0  0  0  0  0  0  0  0  0
   -2.6610    0.6800   -1.1200 H   0  0  0  0  0  0  0  0  0  0  0  0
    0.6900   -1.0760    0.7530 H   0  0  0  0  0  0  0  0  0  0  0  0
    1.7480    0.0430   -1.2090 H   0  0  0  0  0  0  0  0  0  0  0  0
    1.2230    3.4270    1.2460 H   0  0  0  0  0  0  0  0  0  0  0  0
   -1.0470    4.1500    0.1880 H   0  0  0  0  0  0  0  0  0  0  0  0
   -0.1490    1.1440   -2.6440 H   0  0  0  0  0  0  0  0  0  0  0  0
   -3.5480   -1.5020   -1.5500 H   0  0  0  0  0  0  0  0  0  0  0  0
   -0.2070   -3.2480    0.2990 H   0  0  0  0  0  0  0  0  0  0  0  0
    4.1100    0.3800   -1.1560 H   0  0  0  0  0  0  0  0  0  0  0  0
    3.5930    3.7510    1.2910 H   0  0  0  0  0  0  0  0  0  0  0  0
   -1.4880    5.6780   -1.5930 H   0  0  0  0  0  0  0  0  0  0  0  0
   -0.5810    2.7010   -4.4110 H   0  0  0  0  0  0  0  0  0  0  0  0
   -1.9950   -0.5190    2.3900 H   0  0  0  0  0  0  0  0  0  0  0  0
    0.6950    2.5990    3.3380 H   0  0  0  0  0  0  0  0  0  0  0  0
   -2.3260   -3.4820   -0.8610 H   0  0  0  0  0  0  0  0  0  0  0  0
    5.0600    2.2220    0.1070 H   0  0  0  0  0  0  0  0  0  0  0  0
   -1.2670    4.9730   -3.9040 H   0  0  0  0  0  0  0  0  0  0  0  0
   -1.4690   -1.5880    4.4810 H   0  0  0  0  0  0  0  0  0  0  0  0
    1.2130    1.5100    5.4110 H   0  0  0  0  0  0  0  0  0  0  0  0
    0.1450   -0.5900    5.9950 H   0  0  0  0  0  0  0  0  0  0  0  0
  1  3  1  0  0  0  0
  1  5  1  0  0  0  0
  1  2  1  0  0  0  0
  1  4  1  0  0  0  0
  2  7  2  0  0  0  0
  2  6  1  0  0  0  0
  3  9  2  0  0  0  0
  3  8  1  0  0  0  0
  4 10  2  0  0  0  0
  4 11  1  0  0  0  0
  5 12  1  0  0  0  0
  5 13  2  0  0  0  0
  6 14  2  0  0  0  0
  6 28  1  0  0  0  0
  7 29  1  0  0  0  0
  7 15  1  0  0  0  0
  8 16  2  0  0  0  0
  8 30  1  0  0  0  0
  9 17  1  0  0  0  0
  9 31  1  0  0  0  0
 10 32  1  0  0  0  0
 10 18  1  0  0  0  0
 11 19  2  0  0  0  0
 11 33  1  0  0  0  0
 12 20  2  0  0  0  0
 12 21  1  0  0  0  0
 14 22  1  0  0  0  0
 14 34  1  0  0  0  0
 15 35  1  0  0  0  0
 15 22  2  0  0  0  0
 16 23  1  0  0  0  0
 16 36  1  0  0  0  0
 17 37  1  0  0  0  0
 17 23  2  0  0  0  0
 18 38  1  0  0  0  0
 18 24  2  0  0  0  0
 19 24  1  0  0  0  0
 19 39  1  0  0  0  0
 20 25  1  0  0  0  0
 20 40  1  0  0  0  0
 21 26  2  0  0  0  0
 21 41  1  0  0  0  0
 22 42  1  0  0  0  0
 23 43  1  0  0  0  0
 24 44  1  0  0  0  0
 25 45  1  0  0  0  0
 25 27  2  0  0  0  0
 26 27  1  0  0  0  0
 26 46  1  0  0  0  0
 27 47  1  0  0  0  0
M  END
