decoy-88
 OpenBabel06062114503D

 21 20  0  0  0  0  0  0  0  0999 V2000
   -0.0590    1.5460   -0.0290 C   0  0  0  0  0  0  0  0  0  0  0  0
   -0.1670   -0.0270    0.0280 C   0  0  0  0  0  0  0  0  0  0  0  0
    1.3900    2.1460    0.1170 C   0  0  0  0  0  0  0  0  0  0  0  0
   -0.5910    1.9850   -1.2220 F   0  0  0  0  0  0  0  0  0  0  0  0
   -0.8520    2.0790    0.9640 F   0  0  0  0  0  0  0  0  0  0  0  0
   -1.6170   -0.6300   -0.0960 C   0  0  0  0  0  0  0  0  0  0  0  0
    0.6010   -0.5670   -0.9820 F   0  0  0  0  0  0  0  0  0  0  0  0
    0.3940   -0.4650    1.2080 F   0  0  0  0  0  0  0  0  0  0  0  0
    1.4900    3.7040    0.0390 C   0  0  0  0  0  0  0  0  0  0  0  0
    1.9380    1.7600    1.3210 F   0  0  0  0  0  0  0  0  0  0  0  0
    2.2110    1.6300   -0.8630 F   0  0  0  0  0  0  0  0  0  0  0  0
   -1.6470   -2.1030   -0.0770 C   0  0  0  0  0  0  0  0  0  0  0  0
   -2.4480   -0.1410    0.8900 F   0  0  0  0  0  0  0  0  0  0  0  0
   -2.2000   -0.1880   -1.2660 F   0  0  0  0  0  0  0  0  0  0  0  0
    0.7630    4.3200    1.0290 F   0  0  0  0  0  0  0  0  0  0  0  0
    2.7940    4.1200    0.1860 F   0  0  0  0  0  0  0  0  0  0  0  0
    1.0540    4.1920   -1.1700 F   0  0  0  0  0  0  0  0  0  0  0  0
   -1.5560   -2.8620    1.0320 C   0  0  0  0  0  0  0  0  0  0  0  0
   -1.7150   -2.7180   -1.2020 F   0  0  0  0  0  0  0  0  0  0  0  0
   -1.5600   -4.1370    0.9670 F   0  0  0  0  0  0  0  0  0  0  0  0
   -1.4790   -2.3640    2.2040 F   0  0  0  0  0  0  0  0  0  0  0  0
  1  2  1  0  0  0  0
  1  3  1  0  0  0  0
  1  5  1  0  0  0  0
  1  4  1  0  0  0  0
  2  8  1  0  0  0  0
  2  6  1  0  0  0  0
  2  7  1  0  0  0  0
  3 10  1  0  0  0  0
  3  9  1  0  0  0  0
  3 11  1  0  0  0  0
  6 12  1  0  0  0  0
  6 13  1  0  0  0  0
  6 14  1  0  0  0  0
  9 16  1  0  0  0  0
  9 15  1  0  0  0  0
  9 17  1  0  0  0  0
 12 18  2  0  0  0  0
 12 19  1  0  0  0  0
 18 21  1  0  0  0  0
 18 20  1  0  0  0  0
M  END
