
  ACD/Labs06062114593D

 49 52  0  0  0  0  0  0  0  0  2 V2000
   16.2274   -7.1488   -0.4982 C   0  0  0  0  0  0  0  0  0  0  0  0
   16.1514   -8.4980   -0.4276 N   0  3  0  0  0  0  0  0  0  0  0  0
   17.5038   -6.6755   -0.2811 C   0  0  0  0  0  0  0  0  0  0  0  0
   15.1906   -6.2694   -0.7544 C   0  0  0  0  0  0  0  0  0  0  0  0
   17.3496   -9.0575   -0.1515 C   0  0  0  0  0  0  0  0  0  0  0  0
   14.9086   -9.2698   -0.6235 C   0  0  0  0  0  0  0  0  0  0  0  0
   18.4686   -7.9174   -0.0130 S   0  0  0  0  0  0  0  0  0  0  0  0
   17.8129   -5.3308   -0.3082 C   0  0  0  0  0  0  0  0  0  0  0  0
   15.4790   -4.9097   -0.7849 C   0  0  0  0  0  0  0  0  0  0  0  0
   17.6039  -10.5300    0.0000 C   0  0  0  0  0  0  0  0  0  0  0  0
   14.6492   -9.5128   -2.1168 C   0  0  0  0  0  0  0  0  0  0  0  0
   16.7740   -4.4451   -0.5641 C   0  0  0  0  0  0  0  0  0  0  0  0
   19.0988  -10.8169   -0.1202 C   0  0  0  0  0  0  0  0  0  0  0  0
   19.2041  -12.1879   -0.7745 C   0  0  0  0  0  0  0  0  0  0  0  0
   20.5988  -12.7575   -0.7109 C   0  0  0  0  0  0  0  0  0  0  0  0
   20.8697  -14.0504   -0.4432 N   0  3  0  0  0  0  0  0  0  0  0  0
   21.9710  -11.9588   -0.9511 S   0  0  0  0  0  0  0  0  0  0  0  0
   22.1949  -14.3129   -0.4516 C   0  0  0  0  0  0  0  0  0  0  0  0
   19.8309  -15.0592   -0.1759 C   0  0  0  0  0  0  0  0  0  0  0  0
   22.9562  -13.1994   -0.7312 C   0  0  0  0  0  0  0  0  0  0  0  0
   22.7961  -15.5361   -0.2173 C   0  0  0  0  0  0  0  0  0  0  0  0
   19.4469  -15.7673   -1.4775 C   0  0  0  0  0  0  0  0  0  0  0  0
   24.3365  -13.2456   -0.7918 C   0  0  0  0  0  0  0  0  0  0  0  0
   24.1831  -15.6058   -0.2734 C   0  0  0  0  0  0  0  0  0  0  0  0
   24.9448  -14.4741   -0.5573 C   0  0  0  0  0  0  0  0  0  0  0  0
   14.1592   -6.6432   -0.9301 H   0  0  0  0  0  0  0  0  0  0  0  0
   15.0134  -10.2409   -0.0939 H   0  0  0  0  0  0  0  0  0  0  0  0
   14.0671   -8.6950   -0.1810 H   0  0  0  0  0  0  0  0  0  0  0  0
   18.8512   -4.9771   -0.1320 H   0  0  0  0  0  0  0  0  0  0  0  0
   14.6629   -4.1839   -0.9886 H   0  0  0  0  0  0  0  0  0  0  0  0
   17.2389  -10.8593    0.9963 H   0  0  0  0  0  0  0  0  0  0  0  0
   17.0533  -11.0758   -0.7957 H   0  0  0  0  0  0  0  0  0  0  0  0
   15.3306   -8.8747   -2.7193 H   0  0  0  0  0  0  0  0  0  0  0  0
   14.8355  -10.5818   -2.3555 H   0  0  0  0  0  0  0  0  0  0  0  0
   13.5947   -9.2567   -2.3555 H   0  0  0  0  0  0  0  0  0  0  0  0
   16.9809   -3.3539   -0.5925 H   0  0  0  0  0  0  0  0  0  0  0  0
   19.5919  -10.0481   -0.7527 H   0  0  0  0  0  0  0  0  0  0  0  0
   19.5733  -10.8308    0.8843 H   0  0  0  0  0  0  0  0  0  0  0  0
   18.5149  -12.8877   -0.2553 H   0  0  0  0  0  0  0  0  0  0  0  0
   18.9088  -12.1002   -1.8419 H   0  0  0  0  0  0  0  0  0  0  0  0
   20.2307  -15.7935    0.5558 H   0  0  0  0  0  0  0  0  0  0  0  0
   18.9448  -14.5484    0.2578 H   0  0  0  0  0  0  0  0  0  0  0  0
   22.1836  -16.4350    0.0089 H   0  0  0  0  0  0  0  0  0  0  0  0
   19.7788  -15.1553   -2.3434 H   0  0  0  0  0  0  0  0  0  0  0  0
   19.9399  -16.7623   -1.5167 H   0  0  0  0  0  0  0  0  0  0  0  0
   18.3441  -15.8969   -1.5167 H   0  0  0  0  0  0  0  0  0  0  0  0
   24.9311  -12.3350   -1.0190 H   0  0  0  0  0  0  0  0  0  0  0  0
   24.6889  -16.5776   -0.0890 H   0  0  0  0  0  0  0  0  0  0  0  0
   26.0523  -14.5525   -0.5973 H   0  0  0  0  0  0  0  0  0  0  0  0
  1  2  1  0  0  0  0
  1  3  2  0  0  0  0
  1  4  1  0  0  0  0
  2  5  2  0  0  0  0
  2  6  1  0  0  0  0
  3  7  1  0  0  0  0
  3  8  1  0  0  0  0
  4  9  2  0  0  0  0
  5  7  1  0  0  0  0
  5 10  1  0  0  0  0
  6 11  1  0  0  0  0
  8 12  2  0  0  0  0
  9 12  1  0  0  0  0
 10 13  1  0  0  0  0
 13 14  1  0  0  0  0
 14 15  1  0  0  0  0
 15 16  2  0  0  0  0
 15 17  1  0  0  0  0
 16 19  1  0  0  0  0
 16 18  1  0  0  0  0
 17 20  1  0  0  0  0
 18 21  2  0  0  0  0
 18 20  1  0  0  0  0
 19 22  1  0  0  0  0
 20 23  2  0  0  0  0
 21 24  1  0  0  0  0
 23 25  1  0  0  0  0
 24 25  2  0  0  0  0
 26  4  1  0  0  0  0
 27  6  1  0  0  0  0
 28  6  1  0  0  0  0
 29  8  1  0  0  0  0
 30  9  1  0  0  0  0
 31 10  1  0  0  0  0
 32 10  1  0  0  0  0
 33 11  1  0  0  0  0
 34 11  1  0  0  0  0
 35 11  1  0  0  0  0
 36 12  1  0  0  0  0
 37 13  1  0  0  0  0
 38 13  1  0  0  0  0
 39 14  1  0  0  0  0
 40 14  1  0  0  0  0
 41 19  1  0  0  0  0
 42 19  1  0  0  0  0
 43 21  1  0  0  0  0
 44 22  1  0  0  0  0
 45 22  1  0  0  0  0
 46 22  1  0  0  0  0
 47 23  1  0  0  0  0
 48 24  1  0  0  0  0
 49 25  1  0  0  0  0
M  CHG  2   2   1  16   1
M  END
