decoy-445
 OpenBabel06062114513D

 80 83  0  0  0  0  0  0  0  0999 V2000
   -0.2840    2.6680    0.9480 C   0  0  0  0  0  0  0  0  0  0  0  0
    0.0940    1.1800    1.2530 C   0  0  0  0  0  0  0  0  0  0  0  0
    0.4260    3.6260    1.9660 C   0  0  0  0  0  0  0  0  0  0  0  0
    0.1100    3.0790   -0.5000 C   0  0  0  0  0  0  0  0  0  0  0  0
   -0.2690    0.6910    2.6970 C   0  0  0  0  0  0  0  0  0  0  0  0
   -0.4460    0.0750    0.3310 C   0  0  0  0  0  0  0  0  0  0  0  0
    0.0720    5.1550    1.6720 C   0  0  0  0  0  0  0  0  0  0  0  0
    0.2540    3.1380    3.4490 C   0  0  0  0  0  0  0  0  0  0  0  0
    0.1620    4.5070   -0.7420 C   0  0  0  0  0  0  0  0  0  0  0  0
    0.2000   -0.8150    2.6060 C   0  0  0  0  0  0  0  0  0  0  0  0
    0.5460    1.6220    3.6660 C   0  0  0  0  0  0  0  0  0  0  0  0
   -1.8070    0.7670    3.0350 C   0  0  0  0  0  0  0  0  0  0  0  0
   -0.2230   -1.2170    1.1500 C   0  0  0  0  0  0  0  0  0  0  0  0
    0.1590    5.4680    0.2090 C   0  0  0  0  0  0  0  0  0  0  0  0
    1.1110    6.0550    2.4530 C   0  0  0  0  0  0  0  0  0  0  0  0
   -1.3820    5.5080    2.1570 C   0  0  0  0  0  0  0  0  0  0  0  0
   -0.2320   -1.8840    3.6920 C   0  0  0  0  0  0  0  0  0  0  0  0
    0.1970    6.8800   -0.2260 C   0  0  0  0  0  0  0  0  0  0  0  0
    1.1230    7.5530    2.0520 C   0  0  0  0  0  0  0  0  0  0  0  0
    0.3710   -3.3030    3.3840 C   0  0  0  0  0  0  0  0  0  0  0  0
    0.1430   -1.4480    5.1410 C   0  0  0  0  0  0  0  0  0  0  0  0
    1.2830    7.6950    0.5210 C   0  0  0  0  0  0  0  0  0  0  0  0
   -0.1880   -4.4880    4.2330 C   0  0  0  0  0  0  0  0  0  0  0  0
    1.2000    9.0730    0.1610 O   0  0  0  0  0  0  0  0  0  0  0  0
    0.1170   -5.9200    3.6540 C   0  0  0  0  0  0  0  0  0  0  0  0
   -0.8690   -6.2900    2.4710 C   0  0  0  0  0  0  0  0  0  0  0  0
    0.2100   -6.9610    4.8270 C   0  0  0  0  0  0  0  0  0  0  0  0
   -0.2250   -7.1820    1.3710 C   0  0  0  0  0  0  0  0  0  0  0  0
   -2.2430   -6.8690    2.9170 C   0  0  0  0  0  0  0  0  0  0  0  0
    0.7230   -8.3750    4.4680 C   0  0  0  0  0  0  0  0  0  0  0  0
   -1.3660    2.7770    1.0330 H   0  0  0  0  0  0  0  0  0  0  0  0
    1.1880    1.1330    1.1400 H   0  0  0  0  0  0  0  0  0  0  0  0
    1.4980    3.5100    1.7630 H   0  0  0  0  0  0  0  0  0  0  0  0
    1.0960    2.6780   -0.7510 H   0  0  0  0  0  0  0  0  0  0  0  0
   -0.6120    2.6390   -1.1930 H   0  0  0  0  0  0  0  0  0  0  0  0
   -1.5090    0.2310    0.1230 H   0  0  0  0  0  0  0  0  0  0  0  0
    0.0950    0.0440   -0.6200 H   0  0  0  0  0  0  0  0  0  0  0  0
    0.9320    3.6990    4.0970 H   0  0  0  0  0  0  0  0  0  0  0  0
   -0.7570    3.3360    3.8000 H   0  0  0  0  0  0  0  0  0  0  0  0
    0.2470    4.7710   -1.6980 H   0  0  0  0  0  0  0  0  0  0  0  0
    1.2960   -0.8090    2.6240 H   0  0  0  0  0  0  0  0  0  0  0  0
    0.3230    1.3910    4.7060 H   0  0  0  0  0  0  0  0  0  0  0  0
    1.6180    1.4550    3.5290 H   0  0  0  0  0  0  0  0  0  0  0  0
   -2.3930    0.0920    2.4110 H   0  0  0  0  0  0  0  0  0  0  0  0
   -1.9880    0.4920    4.0730 H   0  0  0  0  0  0  0  0  0  0  0  0
   -2.2140    1.7660    2.8970 H   0  0  0  0  0  0  0  0  0  0  0  0
   -1.1480   -1.8010    1.1510 H   0  0  0  0  0  0  0  0  0  0  0  0
    0.5610   -1.8210    0.6810 H   0  0  0  0  0  0  0  0  0  0  0  0
    0.9240    6.0040    3.5290 H   0  0  0  0  0  0  0  0  0  0  0  0
    2.1240    5.6770    2.2880 H   0  0  0  0  0  0  0  0  0  0  0  0
   -2.1260    4.8680    1.6810 H   0  0  0  0  0  0  0  0  0  0  0  0
   -1.4800    5.3990    3.2370 H   0  0  0  0  0  0  0  0  0  0  0  0
   -1.6530    6.5390    1.9320 H   0  0  0  0  0  0  0  0  0  0  0  0
   -1.3210   -1.9800    3.6540 H   0  0  0  0  0  0  0  0  0  0  0  0
    0.3920    6.9880   -1.2980 H   0  0  0  0  0  0  0  0  0  0  0  0
   -0.7780    7.3360   -0.0470 H   0  0  0  0  0  0  0  0  0  0  0  0
    0.1970    8.0350    2.3770 H   0  0  0  0  0  0  0  0  0  0  0  0
    1.9540    8.0580    2.5530 H   0  0  0  0  0  0  0  0  0  0  0  0
    0.1920   -3.5420    2.3380 H   0  0  0  0  0  0  0  0  0  0  0  0
    1.4570   -3.2650    3.5110 H   0  0  0  0  0  0  0  0  0  0  0  0
   -0.4410   -0.5870    5.4510 H   0  0  0  0  0  0  0  0  0  0  0  0
   -0.0760   -2.2300    5.8660 H   0  0  0  0  0  0  0  0  0  0  0  0
    1.2040   -1.2030    5.2060 H   0  0  0  0  0  0  0  0  0  0  0  0
    2.2730    7.3330    0.2270 H   0  0  0  0  0  0  0  0  0  0  0  0
    0.2540   -4.3980    5.2270 H   0  0  0  0  0  0  0  0  0  0  0  0
   -1.2670   -4.3710    4.3560 H   0  0  0  0  0  0  0  0  0  0  0  0
    1.3500    9.0930   -0.8080 H   0  0  0  0  0  0  0  0  0  0  0  0
    1.1290   -5.8610    3.2390 H   0  0  0  0  0  0  0  0  0  0  0  0
   -1.1160   -5.3640    1.9450 H   0  0  0  0  0  0  0  0  0  0  0  0
    0.9100   -6.5750    5.5740 H   0  0  0  0  0  0  0  0  0  0  0  0
   -0.7600   -7.0520    5.3200 H   0  0  0  0  0  0  0  0  0  0  0  0
   -0.8960   -7.2680    0.5130 H   0  0  0  0  0  0  0  0  0  0  0  0
    0.7090   -6.7390    1.0190 H   0  0  0  0  0  0  0  0  0  0  0  0
   -0.0160   -8.1860    1.7350 H   0  0  0  0  0  0  0  0  0  0  0  0
   -2.7050   -6.2270    3.6680 H   0  0  0  0  0  0  0  0  0  0  0  0
   -2.9220   -6.9290    2.0640 H   0  0  0  0  0  0  0  0  0  0  0  0
   -2.1340   -7.8700    3.3330 H   0  0  0  0  0  0  0  0  0  0  0  0
    0.9660   -8.9210    5.3820 H   0  0  0  0  0  0  0  0  0  0  0  0
   -0.0380   -8.9440    3.9360 H   0  0  0  0  0  0  0  0  0  0  0  0
    1.6240   -8.3120    3.8550 H   0  0  0  0  0  0  0  0  0  0  0  0
  1 31  1  0  0  0  0
  1  2  1  0  0  0  0
  1  3  1  0  0  0  0
  1  4  1  0  0  0  0
  2  5  1  0  0  0  0
  2  6  1  0  0  0  0
  2 32  1  0  0  0  0
  3  8  1  0  0  0  0
  3  7  1  0  0  0  0
  3 33  1  0  0  0  0
  4  9  1  0  0  0  0
  4 34  1  0  0  0  0
  4 35  1  0  0  0  0
  5 10  1  0  0  0  0
  5 12  1  0  0  0  0
  5 11  1  0  0  0  0
  6 13  1  0  0  0  0
  6 36  1  0  0  0  0
  6 37  1  0  0  0  0
  7 16  1  0  0  0  0
  7 15  1  0  0  0  0
  7 14  1  0  0  0  0
  8 11  1  0  0  0  0
  8 39  1  0  0  0  0
  8 38  1  0  0  0  0
  9 14  2  0  0  0  0
  9 40  1  0  0  0  0
 10 41  1  0  0  0  0
 10 17  1  0  0  0  0
 10 13  1  0  0  0  0
 11 42  1  0  0  0  0
 11 43  1  0  0  0  0
 12 45  1  0  0  0  0
 12 44  1  0  0  0  0
 12 46  1  0  0  0  0
 13 47  1  0  0  0  0
 13 48  1  0  0  0  0
 14 18  1  0  0  0  0
 15 49  1  0  0  0  0
 15 19  1  0  0  0  0
 15 50  1  0  0  0  0
 16 52  1  0  0  0  0
 16 51  1  0  0  0  0
 16 53  1  0  0  0  0
 17 54  1  0  0  0  0
 17 21  1  0  0  0  0
 17 20  1  0  0  0  0
 18 56  1  0  0  0  0
 18 22  1  0  0  0  0
 18 55  1  0  0  0  0
 19 57  1  0  0  0  0
 19 58  1  0  0  0  0
 19 22  1  0  0  0  0
 20 60  1  0  0  0  0
 20 23  1  0  0  0  0
 20 59  1  0  0  0  0
 21 63  1  0  0  0  0
 21 61  1  0  0  0  0
 21 62  1  0  0  0  0
 22 64  1  0  0  0  0
 22 24  1  0  0  0  0
 23 66  1  0  0  0  0
 23 65  1  0  0  0  0
 23 25  1  0  0  0  0
 24 67  1  0  0  0  0
 25 68  1  0  0  0  0
 25 27  1  0  0  0  0
 25 26  1  0  0  0  0
 26 29  1  0  0  0  0
 26 28  1  0  0  0  0
 26 69  1  0  0  0  0
 27 71  1  0  0  0  0
 27 70  1  0  0  0  0
 27 30  1  0  0  0  0
 28 74  1  0  0  0  0
 28 72  1  0  0  0  0
 28 73  1  0  0  0  0
 29 77  1  0  0  0  0
 29 75  1  0  0  0  0
 29 76  1  0  0  0  0
 30 78  1  0  0  0  0
 30 79  1  0  0  0  0
 30 80  1  0  0  0  0
M  END
