decoy-398
 OpenBabel06062114513D

 66 69  0  0  0  0  0  0  0  0999 V2000
    0.1320    1.2600    0.5700 C   0  0  0  0  0  0  0  0  0  0  0  0
    0.0050   -0.2570    0.5470 C   0  0  0  0  0  0  0  0  0  0  0  0
    1.4990    1.8110    0.3080 C   0  0  0  0  0  0  0  0  0  0  0  0
   -0.4070    1.8700    1.8240 C   0  0  0  0  0  0  0  0  0  0  0  0
   -1.5080   -0.6750    0.4170 C   0  0  0  0  0  0  0  0  0  0  0  0
    0.8430   -1.0050   -0.5440 C   0  0  0  0  0  0  0  0  0  0  0  0
    1.6210    3.3070    0.3130 C   0  0  0  0  0  0  0  0  0  0  0  0
   -0.4730    3.3620    1.7290 C   0  0  0  0  0  0  0  0  0  0  0  0
   -1.8020   -2.0350   -0.2790 C   0  0  0  0  0  0  0  0  0  0  0  0
    0.6970   -2.5570   -0.4980 C   0  0  0  0  0  0  0  0  0  0  0  0
    3.0510    3.8130    0.1380 C   0  0  0  0  0  0  0  0  0  0  0  0
    0.9070    3.8880    1.4980 C   0  0  0  0  0  0  0  0  0  0  0  0
   -1.2760    3.9930    2.8580 C   0  0  0  0  0  0  0  0  0  0  0  0
   -0.6840   -3.0620    0.0040 C   0  0  0  0  0  0  0  0  0  0  0  0
    3.7530    3.2320   -1.1400 C   0  0  0  0  0  0  0  0  0  0  0  0
    3.1460    5.3790    0.0870 C   0  0  0  0  0  0  0  0  0  0  0  0
   -0.9170    5.4690    3.2440 C   0  0  0  0  0  0  0  0  0  0  0  0
   -2.8000    3.9430    2.4990 C   0  0  0  0  0  0  0  0  0  0  0  0
    5.1750    3.7910   -1.4060 C   0  0  0  0  0  0  0  0  0  0  0  0
    4.5700    5.9310   -0.1850 C   0  0  0  0  0  0  0  0  0  0  0  0
   -1.8130    6.0400    4.3750 C   0  0  0  0  0  0  0  0  0  0  0  0
   -3.7110    4.5070    3.6210 C   0  0  0  0  0  0  0  0  0  0  0  0
    5.1780    5.3350   -1.4730 C   0  0  0  0  0  0  0  0  0  0  0  0
   -3.3150    5.9510    4.0100 C   0  0  0  0  0  0  0  0  0  0  0  0
    0.3780   -0.6400    1.5050 H   0  0  0  0  0  0  0  0  0  0  0  0
    2.2150    1.3710    1.0110 H   0  0  0  0  0  0  0  0  0  0  0  0
    1.7530    1.4950   -0.7010 H   0  0  0  0  0  0  0  0  0  0  0  0
   -1.4110    1.4890    1.9950 H   0  0  0  0  0  0  0  0  0  0  0  0
    0.1990    1.5690    2.6860 H   0  0  0  0  0  0  0  0  0  0  0  0
   -1.9390   -0.7210    1.4210 H   0  0  0  0  0  0  0  0  0  0  0  0
   -2.0550    0.0960   -0.1330 H   0  0  0  0  0  0  0  0  0  0  0  0
    0.5310   -0.6430   -1.5280 H   0  0  0  0  0  0  0  0  0  0  0  0
    1.9070   -0.7830   -0.4300 H   0  0  0  0  0  0  0  0  0  0  0  0
   -2.7610   -2.4300    0.0690 H   0  0  0  0  0  0  0  0  0  0  0  0
   -1.8780   -1.8850   -1.3600 H   0  0  0  0  0  0  0  0  0  0  0  0
    0.8800   -2.9480   -1.5030 H   0  0  0  0  0  0  0  0  0  0  0  0
    1.4710   -2.9730    0.1550 H   0  0  0  0  0  0  0  0  0  0  0  0
    3.6360    3.4840    1.0050 H   0  0  0  0  0  0  0  0  0  0  0  0
    1.5120    3.7650    2.4030 H   0  0  0  0  0  0  0  0  0  0  0  0
    0.7900    4.9500    1.2940 H   0  0  0  0  0  0  0  0  0  0  0  0
   -1.1230    3.4020    3.7680 H   0  0  0  0  0  0  0  0  0  0  0  0
   -0.6380   -3.2410    1.0820 H   0  0  0  0  0  0  0  0  0  0  0  0
   -0.9270   -4.0130   -0.4790 H   0  0  0  0  0  0  0  0  0  0  0  0
    3.8710    2.1510   -1.0430 H   0  0  0  0  0  0  0  0  0  0  0  0
    3.1240    3.4260   -2.0130 H   0  0  0  0  0  0  0  0  0  0  0  0
    2.4650    5.7540   -0.6820 H   0  0  0  0  0  0  0  0  0  0  0  0
    2.8400    5.8040    1.0450 H   0  0  0  0  0  0  0  0  0  0  0  0
    0.1180    5.5180    3.5920 H   0  0  0  0  0  0  0  0  0  0  0  0
   -1.0110    6.1130    2.3640 H   0  0  0  0  0  0  0  0  0  0  0  0
   -2.9710    4.5140    1.5810 H   0  0  0  0  0  0  0  0  0  0  0  0
   -3.1190    2.9180    2.3060 H   0  0  0  0  0  0  0  0  0  0  0  0
    5.8490    3.4610   -0.6110 H   0  0  0  0  0  0  0  0  0  0  0  0
    5.5510    3.3910   -2.3520 H   0  0  0  0  0  0  0  0  0  0  0  0
    4.5240    7.0190   -0.2810 H   0  0  0  0  0  0  0  0  0  0  0  0
    5.2180    5.6960    0.6640 H   0  0  0  0  0  0  0  0  0  0  0  0
   -1.6310    5.4840    5.2990 H   0  0  0  0  0  0  0  0  0  0  0  0
   -1.5480    7.0850    4.5550 H   0  0  0  0  0  0  0  0  0  0  0  0
   -4.7510    4.4990    3.2820 H   0  0  0  0  0  0  0  0  0  0  0  0
   -3.6410    3.8620    4.5020 H   0  0  0  0  0  0  0  0  0  0  0  0
    6.2050    5.6920   -1.5910 H   0  0  0  0  0  0  0  0  0  0  0  0
    4.6020    5.6670   -2.3420 H   0  0  0  0  0  0  0  0  0  0  0  0
   -3.9160    6.2760    4.8630 H   0  0  0  0  0  0  0  0  0  0  0  0
   -3.5260    6.6240    3.1740 H   0  0  0  0  0  0  0  0  0  0  0  0
   -0.4540    1.6040   -0.1940 H   0  0  0  0  0  0  0  0  0  0  0  0
    1.1030    3.6300   -0.5070 H   0  0  0  0  0  0  0  0  0  0  0  0
   -0.9890    3.5710    0.8710 H   0  0  0  0  0  0  0  0  0  0  0  0
  1 64  1  0  0  0  0
  1  4  1  0  0  0  0
  1  2  1  0  0  0  0
  1  3  1  0  0  0  0
  2 25  1  0  0  0  0
  2  5  1  0  0  0  0
  2  6  1  0  0  0  0
  3  7  1  0  0  0  0
  3 26  1  0  0  0  0
  3 27  1  0  0  0  0
  4 28  1  0  0  0  0
  4 29  1  0  0  0  0
  4  8  1  0  0  0  0
  5 30  1  0  0  0  0
  5  9  1  0  0  0  0
  5 31  1  0  0  0  0
  6 10  1  0  0  0  0
  6 33  1  0  0  0  0
  6 32  1  0  0  0  0
  7 65  1  0  0  0  0
  7 12  1  0  0  0  0
  7 11  1  0  0  0  0
  8 66  1  0  0  0  0
  8 13  1  0  0  0  0
  8 12  1  0  0  0  0
  9 14  1  0  0  0  0
  9 34  1  0  0  0  0
  9 35  1  0  0  0  0
 10 14  1  0  0  0  0
 10 37  1  0  0  0  0
 10 36  1  0  0  0  0
 11 38  1  0  0  0  0
 11 15  1  0  0  0  0
 11 16  1  0  0  0  0
 12 39  1  0  0  0  0
 12 40  1  0  0  0  0
 13 17  1  0  0  0  0
 13 41  1  0  0  0  0
 13 18  1  0  0  0  0
 14 42  1  0  0  0  0
 14 43  1  0  0  0  0
 15 44  1  0  0  0  0
 15 19  1  0  0  0  0
 15 45  1  0  0  0  0
 16 47  1  0  0  0  0
 16 20  1  0  0  0  0
 16 46  1  0  0  0  0
 17 48  1  0  0  0  0
 17 21  1  0  0  0  0
 17 49  1  0  0  0  0
 18 22  1  0  0  0  0
 18 50  1  0  0  0  0
 18 51  1  0  0  0  0
 19 52  1  0  0  0  0
 19 23  1  0  0  0  0
 19 53  1  0  0  0  0
 20 55  1  0  0  0  0
 20 23  1  0  0  0  0
 20 54  1  0  0  0  0
 21 57  1  0  0  0  0
 21 56  1  0  0  0  0
 21 24  1  0  0  0  0
 22 24  1  0  0  0  0
 22 59  1  0  0  0  0
 22 58  1  0  0  0  0
 23 60  1  0  0  0  0
 23 61  1  0  0  0  0
 24 62  1  0  0  0  0
 24 63  1  0  0  0  0
M  END
