decoy-468
 OpenBabel06062114513D

 64 65  0  0  0  0  0  0  0  0999 V2000
    0.2540    1.2360   -0.3130 *   0  0  0  0  0  0  0  0  0  0  0  0
   -0.3480   -0.1370   -0.4100 C   0  0  0  0  0  0  0  0  0  0  0  0
    1.4760    1.3870    0.5440 C   0  0  0  0  0  0  0  0  0  0  0  0
    0.1730    2.0840   -1.5460 C   0  0  0  0  0  0  0  0  0  0  0  0
    0.0170   -1.0360   -1.6190 C   0  0  0  0  0  0  0  0  0  0  0  0
    2.6910    0.4310    0.3990 C   0  0  0  0  0  0  0  0  0  0  0  0
    1.3500    2.0330   -2.5530 C   0  0  0  0  0  0  0  0  0  0  0  0
   -0.7730   -2.2380   -1.5410 O   0  0  0  0  0  0  0  0  0  0  0  0
    3.5390    0.7730   -0.7170 O   0  0  0  0  0  0  0  0  0  0  0  0
    0.8590    2.3770   -3.8610 O   0  0  0  0  0  0  0  0  0  0  0  0
   -0.7430   -3.1160   -2.6830 C   0  0  0  0  0  0  0  0  0  0  0  0
    4.8570    0.1840   -0.6670 C   0  0  0  0  0  0  0  0  0  0  0  0
    1.7890    2.9540   -4.7950 C   0  0  0  0  0  0  0  0  0  0  0  0
    0.5250   -4.0110   -2.7460 C   0  0  0  0  0  0  0  0  0  0  0  0
    5.7250    0.6170   -1.8750 C   0  0  0  0  0  0  0  0  0  0  0  0
    1.4190    2.5080   -6.2350 C   0  0  0  0  0  0  0  0  0  0  0  0
    1.2260   -3.9150   -4.0020 O   0  0  0  0  0  0  0  0  0  0  0  0
    5.7800   -0.3670   -2.9250 O   0  0  0  0  0  0  0  0  0  0  0  0
    2.2700    1.4690   -6.7540 O   0  0  0  0  0  0  0  0  0  0  0  0
    2.0880   -2.7730   -4.1650 C   0  0  0  0  0  0  0  0  0  0  0  0
    4.6590   -0.4210   -3.8230 C   0  0  0  0  0  0  0  0  0  0  0  0
    2.2010    0.1680   -6.1360 C   0  0  0  0  0  0  0  0  0  0  0  0
    2.8300   -2.8950   -5.5170 C   0  0  0  0  0  0  0  0  0  0  0  0
    4.9060   -1.5570   -4.8500 C   0  0  0  0  0  0  0  0  0  0  0  0
    3.3670   -0.6910   -6.6890 C   0  0  0  0  0  0  0  0  0  0  0  0
    3.8530   -1.8580   -5.8800 *   0  0  0  0  0  0  0  0  0  0  0  0
   -0.1450   -0.6950    0.5080 H   0  0  0  0  0  0  0  0  0  0  0  0
   -1.4320    0.0060   -0.4400 H   0  0  0  0  0  0  0  0  0  0  0  0
    1.8460    2.4130    0.4770 H   0  0  0  0  0  0  0  0  0  0  0  0
    1.1190    1.2730    1.5720 H   0  0  0  0  0  0  0  0  0  0  0  0
   -0.7570    1.8490   -2.0720 H   0  0  0  0  0  0  0  0  0  0  0  0
    0.0670    3.1230   -1.2220 H   0  0  0  0  0  0  0  0  0  0  0  0
   -0.2140   -0.5060   -2.5450 H   0  0  0  0  0  0  0  0  0  0  0  0
    1.0800   -1.2780   -1.6010 H   0  0  0  0  0  0  0  0  0  0  0  0
    3.2610    0.5110    1.3310 H   0  0  0  0  0  0  0  0  0  0  0  0
    2.3590   -0.6040    0.3110 H   0  0  0  0  0  0  0  0  0  0  0  0
    2.1340    2.7200   -2.2160 H   0  0  0  0  0  0  0  0  0  0  0  0
    1.7650    1.0290   -2.6070 H   0  0  0  0  0  0  0  0  0  0  0  0
   -1.6190   -3.7620   -2.5890 H   0  0  0  0  0  0  0  0  0  0  0  0
   -0.8750   -2.5550   -3.6120 H   0  0  0  0  0  0  0  0  0  0  0  0
    5.3600    0.5160    0.2460 H   0  0  0  0  0  0  0  0  0  0  0  0
    4.7880   -0.9080   -0.6400 H   0  0  0  0  0  0  0  0  0  0  0  0
    1.7070    4.0400   -4.7090 H   0  0  0  0  0  0  0  0  0  0  0  0
    2.8270    2.6780   -4.5870 H   0  0  0  0  0  0  0  0  0  0  0  0
    1.1910   -3.8080   -1.9030 H   0  0  0  0  0  0  0  0  0  0  0  0
    0.2180   -5.0550   -2.6500 H   0  0  0  0  0  0  0  0  0  0  0  0
    5.4070    1.5940   -2.2520 H   0  0  0  0  0  0  0  0  0  0  0  0
    6.7550    0.7310   -1.5300 H   0  0  0  0  0  0  0  0  0  0  0  0
    0.3700    2.2060   -6.2970 H   0  0  0  0  0  0  0  0  0  0  0  0
    1.5470    3.3630   -6.9020 H   0  0  0  0  0  0  0  0  0  0  0  0
    1.5060   -1.8530   -4.1460 H   0  0  0  0  0  0  0  0  0  0  0  0
    2.8170   -2.7610   -3.3520 H   0  0  0  0  0  0  0  0  0  0  0  0
    3.7420   -0.6050   -3.2640 H   0  0  0  0  0  0  0  0  0  0  0  0
    4.5760    0.5340   -4.3470 H   0  0  0  0  0  0  0  0  0  0  0  0
    2.2870    0.2540   -5.0570 H   0  0  0  0  0  0  0  0  0  0  0  0
    1.2430   -0.3040   -6.3680 H   0  0  0  0  0  0  0  0  0  0  0  0
    3.3520   -3.8560   -5.5100 H   0  0  0  0  0  0  0  0  0  0  0  0
    2.0820   -2.9640   -6.3120 H   0  0  0  0  0  0  0  0  0  0  0  0
    5.8170   -1.2980   -5.3970 H   0  0  0  0  0  0  0  0  0  0  0  0
    5.1390   -2.4720   -4.3000 H   0  0  0  0  0  0  0  0  0  0  0  0
    3.0590   -1.0710   -7.6670 H   0  0  0  0  0  0  0  0  0  0  0  0
    4.2220   -0.0370   -6.8840 H   0  0  0  0  0  0  0  0  0  0  0  0
   -0.4420    1.7020    0.2750 H   0  0  0  0  0  0  0  0  0  0  0  0
    4.4020   -2.3640   -6.5800 H   0  0  0  0  0  0  0  0  0  0  0  0
  1 63  1  0  0  0  0
  1  3  1  0  0  0  0
  1  2  1  0  0  0  0
  1  4  1  0  0  0  0
  2 27  1  0  0  0  0
  2  5  1  0  0  0  0
  2 28  1  0  0  0  0
  3 30  1  0  0  0  0
  3  6  1  0  0  0  0
  3 29  1  0  0  0  0
  4 32  1  0  0  0  0
  4  7  1  0  0  0  0
  4 31  1  0  0  0  0
  5 34  1  0  0  0  0
  5  8  1  0  0  0  0
  5 33  1  0  0  0  0
  6 35  1  0  0  0  0
  6  9  1  0  0  0  0
  6 36  1  0  0  0  0
  7 37  1  0  0  0  0
  7 10  1  0  0  0  0
  7 38  1  0  0  0  0
  8 11  1  0  0  0  0
  9 12  1  0  0  0  0
 10 13  1  0  0  0  0
 11 39  1  0  0  0  0
 11 14  1  0  0  0  0
 11 40  1  0  0  0  0
 12 42  1  0  0  0  0
 12 41  1  0  0  0  0
 12 15  1  0  0  0  0
 13 43  1  0  0  0  0
 13 44  1  0  0  0  0
 13 16  1  0  0  0  0
 14 46  1  0  0  0  0
 14 45  1  0  0  0  0
 14 17  1  0  0  0  0
 15 48  1  0  0  0  0
 15 18  1  0  0  0  0
 15 47  1  0  0  0  0
 16 19  1  0  0  0  0
 16 49  1  0  0  0  0
 16 50  1  0  0  0  0
 17 20  1  0  0  0  0
 18 21  1  0  0  0  0
 19 22  1  0  0  0  0
 20 51  1  0  0  0  0
 20 52  1  0  0  0  0
 20 23  1  0  0  0  0
 21 53  1  0  0  0  0
 21 24  1  0  0  0  0
 21 54  1  0  0  0  0
 22 55  1  0  0  0  0
 22 25  1  0  0  0  0
 22 56  1  0  0  0  0
 23 57  1  0  0  0  0
 23 26  1  0  0  0  0
 23 58  1  0  0  0  0
 24 60  1  0  0  0  0
 24 26  1  0  0  0  0
 24 59  1  0  0  0  0
 25 26  1  0  0  0  0
 25 61  1  0  0  0  0
 25 62  1  0  0  0  0
 26 64  1  0  0  0  0
M  END
