decoy-634
 OpenBabel06062114513D

 41 43  0  0  0  0  0  0  0  0999 V2000
   -2.4210    0.9210   -1.7470 C   0  0  0  0  0  0  0  0  0  0  0  0
   -4.1020    1.2070   -2.1000 S   0  0  0  0  0  0  0  0  0  0  0  0
   -1.4880    0.7350   -2.7880 C   0  0  0  0  0  0  0  0  0  0  0  0
   -1.9850    0.8530   -0.4090 C   0  0  0  0  0  0  0  0  0  0  0  0
   -5.0870    0.0880   -1.3130 N   0  0  0  0  0  0  0  0  0  0  0  0
   -4.4620    1.2760   -3.6480 O   0  0  0  0  0  0  0  0  0  0  0  0
   -4.4770    2.6230   -1.4810 O   0  0  0  0  0  0  0  0  0  0  0  0
   -0.1350    0.4880   -2.4930 C   0  0  0  0  0  0  0  0  0  0  0  0
   -0.6310    0.6060   -0.1140 C   0  0  0  0  0  0  0  0  0  0  0  0
   -5.0430   -1.2500   -1.5250 C   0  0  0  0  0  0  0  0  0  0  0  0
    0.3080    0.4210   -1.1550 C   0  0  0  0  0  0  0  0  0  0  0  0
   -5.9000   -2.0910   -0.7840 C   0  0  0  0  0  0  0  0  0  0  0  0
   -4.1920   -1.8130   -2.4280 N   0  0  0  0  0  0  0  0  0  0  0  0
    1.6190    0.1790   -0.9380 N   0  0  0  0  0  0  0  0  0  0  0  0
   -5.8550   -3.4820   -0.9960 C   0  0  0  0  0  0  0  0  0  0  0  0
   -4.1230   -3.1500   -2.6560 C   0  0  0  0  0  0  0  0  0  0  0  0
    2.2030    0.0840    0.2160 N   0  0  0  0  0  0  0  0  0  0  0  0
   -4.9610   -4.0210   -1.9380 C   0  0  0  0  0  0  0  0  0  0  0  0
    3.5140   -0.1580    0.4360 C   0  0  0  0  0  0  0  0  0  0  0  0
    4.4590   -0.3420   -0.6000 C   0  0  0  0  0  0  0  0  0  0  0  0
    3.9480   -0.2220    1.7730 C   0  0  0  0  0  0  0  0  0  0  0  0
    5.8280   -0.5890   -0.3260 C   0  0  0  0  0  0  0  0  0  0  0  0
    5.2970   -0.4730    2.0700 C   0  0  0  0  0  0  0  0  0  0  0  0
    6.2330   -0.6630    1.0350 C   0  0  0  0  0  0  0  0  0  0  0  0
    6.7460   -0.7400   -1.4030 C   0  0  0  0  0  0  0  0  0  0  0  0
    7.5080   -0.9330    1.4160 O   0  0  0  0  0  0  0  0  0  0  0  0
    6.3310   -0.8290   -2.6880 O   0  0  0  0  0  0  0  0  0  0  0  0
    8.0870   -0.7230   -1.2260 O   0  0  0  0  0  0  0  0  0  0  0  0
   -1.7860    0.7750   -3.7650 H   0  0  0  0  0  0  0  0  0  0  0  0
   -2.6490    0.9810    0.3590 H   0  0  0  0  0  0  0  0  0  0  0  0
   -5.7150    0.4260   -0.6550 H   0  0  0  0  0  0  0  0  0  0  0  0
    0.5270    0.3550   -3.2620 H   0  0  0  0  0  0  0  0  0  0  0  0
   -0.3370    0.5610    0.8650 H   0  0  0  0  0  0  0  0  0  0  0  0
   -6.5500   -1.7020   -0.0980 H   0  0  0  0  0  0  0  0  0  0  0  0
   -6.4710   -4.1000   -0.4640 H   0  0  0  0  0  0  0  0  0  0  0  0
   -3.4640   -3.5130   -3.3460 H   0  0  0  0  0  0  0  0  0  0  0  0
   -4.9200   -5.0300   -2.0980 H   0  0  0  0  0  0  0  0  0  0  0  0
    4.1360   -0.2830   -1.5690 H   0  0  0  0  0  0  0  0  0  0  0  0
    3.2840   -0.0910    2.5410 H   0  0  0  0  0  0  0  0  0  0  0  0
    5.5950   -0.5260    3.0470 H   0  0  0  0  0  0  0  0  0  0  0  0
    7.8290   -1.6140    0.7890 H   0  0  0  0  0  0  0  0  0  0  0  0
  1  4  2  0  0  0  0
  1  2  1  0  0  0  0
  1  3  1  0  0  0  0
  2  7  2  0  0  0  0
  2  5  1  0  0  0  0
  2  6  2  0  0  0  0
  3  8  2  0  0  0  0
  3 29  1  0  0  0  0
  4  9  1  0  0  0  0
  4 30  1  0  0  0  0
  5 31  1  0  0  0  0
  5 10  1  0  0  0  0
  8 11  1  0  0  0  0
  8 32  1  0  0  0  0
  9 33  1  0  0  0  0
  9 11  2  0  0  0  0
 10 12  2  0  0  0  0
 10 13  1  0  0  0  0
 11 14  1  0  0  0  0
 12 34  1  0  0  0  0
 12 15  1  0  0  0  0
 13 16  2  0  0  0  0
 14 17  2  0  0  0  0
 15 35  1  0  0  0  0
 15 18  2  0  0  0  0
 16 18  1  0  0  0  0
 16 36  1  0  0  0  0
 17 19  1  0  0  0  0
 18 37  1  0  0  0  0
 19 21  2  0  0  0  0
 19 20  1  0  0  0  0
 20 22  2  0  0  0  0
 20 38  1  0  0  0  0
 21 23  1  0  0  0  0
 21 39  1  0  0  0  0
 22 24  1  0  0  0  0
 22 25  1  0  0  0  0
 23 40  1  0  0  0  0
 23 24  2  0  0  0  0
 24 26  1  0  0  0  0
 25 28  1  0  0  0  0
 25 27  2  0  0  0  0
 26 41  1  0  0  0  0
M  END
