decoy-410
 OpenBabel06062114513D

 43 45  0  0  0  0  0  0  0  0999 V2000
   -0.1900   -0.3600    0.4610 C   0  0  0  0  0  0  0  0  0  0  0  0
    1.1700    0.3030    0.1150 C   0  0  0  0  0  0  0  0  0  0  0  0
   -0.7870    0.5320    1.4030 O   0  0  0  0  0  0  0  0  0  0  0  0
   -0.0630   -1.6360    1.1370 O   0  0  0  0  0  0  0  0  0  0  0  0
   -1.1430   -0.5040   -0.7600 C   0  0  0  0  0  0  0  0  0  0  0  0
    2.3680   -0.3500    0.8630 C   0  0  0  0  0  0  0  0  0  0  0  0
    1.0390    1.6790    0.4680 O   0  0  0  0  0  0  0  0  0  0  0  0
   -0.1030    1.7930    1.3300 C   0  0  0  0  0  0  0  0  0  0  0  0
    0.9580   -2.5130    0.6220 C   0  0  0  0  0  0  0  0  0  0  0  0
   -2.4130   -0.9980   -0.3350 O   0  0  0  0  0  0  0  0  0  0  0  0
    2.3690   -1.8900    0.7980 C   0  0  0  0  0  0  0  0  0  0  0  0
    3.6080    0.0530    0.2810 O   0  0  0  0  0  0  0  0  0  0  0  0
    0.3530    2.1860    2.7600 C   0  0  0  0  0  0  0  0  0  0  0  0
   -1.0530    2.8750    0.7540 C   0  0  0  0  0  0  0  0  0  0  0  0
   -3.6940   -1.2670   -1.4080 S   0  0  0  0  0  0  0  0  0  0  0  0
    3.2180   -2.1840   -0.3070 O   0  0  0  0  0  0  0  0  0  0  0  0
    4.1580   -1.0990   -0.3810 C   0  0  0  0  0  0  0  0  0  0  0  0
   -4.9570   -1.8400   -0.4600 N   0  0  0  0  0  0  0  0  0  0  0  0
   -3.2590   -2.4720   -2.5090 O   0  0  0  0  0  0  0  0  0  0  0  0
   -4.1640    0.2050   -2.0940 O   0  0  0  0  0  0  0  0  0  0  0  0
    4.3870   -0.7560   -1.8730 C   0  0  0  0  0  0  0  0  0  0  0  0
    5.4890   -1.4950    0.3100 C   0  0  0  0  0  0  0  0  0  0  0  0
    1.3610    0.2430   -0.9600 H   0  0  0  0  0  0  0  0  0  0  0  0
   -1.2820    0.4620   -1.2490 H   0  0  0  0  0  0  0  0  0  0  0  0
   -0.7180   -1.1930   -1.4910 H   0  0  0  0  0  0  0  0  0  0  0  0
    2.3600   -0.0370    1.9090 H   0  0  0  0  0  0  0  0  0  0  0  0
    0.9050   -3.4560    1.1700 H   0  0  0  0  0  0  0  0  0  0  0  0
    0.7670   -2.7390   -0.4300 H   0  0  0  0  0  0  0  0  0  0  0  0
    2.8260   -2.2890    1.7110 H   0  0  0  0  0  0  0  0  0  0  0  0
   -0.5130    2.3330    3.4100 H   0  0  0  0  0  0  0  0  0  0  0  0
    0.9330    3.1100    2.7340 H   0  0  0  0  0  0  0  0  0  0  0  0
    0.9720    1.4020    3.1950 H   0  0  0  0  0  0  0  0  0  0  0  0
   -1.3420    2.6270   -0.2680 H   0  0  0  0  0  0  0  0  0  0  0  0
   -0.5590    3.8480    0.7400 H   0  0  0  0  0  0  0  0  0  0  0  0
   -1.9590    2.9490    1.3590 H   0  0  0  0  0  0  0  0  0  0  0  0
   -5.8100   -2.0570   -0.8680 H   0  0  0  0  0  0  0  0  0  0  0  0
   -4.8340   -1.9540    0.4960 H   0  0  0  0  0  0  0  0  0  0  0  0
    3.4410   -0.4870   -2.3460 H   0  0  0  0  0  0  0  0  0  0  0  0
    4.8050   -1.6140   -2.4030 H   0  0  0  0  0  0  0  0  0  0  0  0
    5.0740    0.0870   -1.9710 H   0  0  0  0  0  0  0  0  0  0  0  0
    6.2130   -0.6810    0.2400 H   0  0  0  0  0  0  0  0  0  0  0  0
    5.9130   -2.3840   -0.1610 H   0  0  0  0  0  0  0  0  0  0  0  0
    5.3190   -1.7130    1.3660 H   0  0  0  0  0  0  0  0  0  0  0  0
  1  2  1  0  0  0  0
  1  4  1  0  0  0  0
  1  3  1  0  0  0  0
  1  5  1  0  0  0  0
  2  7  1  0  0  0  0
  2  6  1  0  0  0  0
  2 23  1  0  0  0  0
  3  8  1  0  0  0  0
  4  9  1  0  0  0  0
  5 10  1  0  0  0  0
  5 24  1  0  0  0  0
  5 25  1  0  0  0  0
  6 11  1  0  0  0  0
  6 26  1  0  0  0  0
  6 12  1  0  0  0  0
  7  8  1  0  0  0  0
  8 13  1  0  0  0  0
  8 14  1  0  0  0  0
  9 11  1  0  0  0  0
  9 27  1  0  0  0  0
  9 28  1  0  0  0  0
 10 15  1  0  0  0  0
 11 29  1  0  0  0  0
 11 16  1  0  0  0  0
 12 17  1  0  0  0  0
 13 32  1  0  0  0  0
 13 30  1  0  0  0  0
 13 31  1  0  0  0  0
 14 35  1  0  0  0  0
 14 33  1  0  0  0  0
 14 34  1  0  0  0  0
 15 18  1  0  0  0  0
 15 19  2  0  0  0  0
 15 20  2  0  0  0  0
 16 17  1  0  0  0  0
 17 22  1  0  0  0  0
 17 21  1  0  0  0  0
 18 37  1  0  0  0  0
 18 36  1  0  0  0  0
 21 38  1  0  0  0  0
 21 39  1  0  0  0  0
 21 40  1  0  0  0  0
 22 43  1  0  0  0  0
 22 41  1  0  0  0  0
 22 42  1  0  0  0  0
M  END
