decoy-474
 OpenBabel06062114513D

 25 25  0  0  0  0  0  0  0  0999 V2000
    0.2790    1.3930    0.4240 N   0  0  0  0  0  0  0  0  0  0  0  0
    0.3110   -0.1170    0.1310 P   0  0  0  0  0  0  0  0  0  0  0  0
    1.4060    2.1900    0.0770 C   0  0  0  0  0  0  0  0  0  0  0  0
   -0.5430    1.8640    1.4860 C   0  0  0  0  0  0  0  0  0  0  0  0
   -1.1370   -0.7040    0.1570 O   0  0  0  0  0  0  0  0  0  0  0  0
    0.8700   -0.3850   -1.1720 O   0  0  0  0  0  0  0  0  0  0  0  0
    1.4020   -0.9660    1.4100 Cl  0  0  0  0  0  0  0  0  0  0  0  0
    1.0290    3.6870   -0.0690 C   0  0  0  0  0  0  0  0  0  0  0  0
   -0.8930    3.3660    1.3190 C   0  0  0  0  0  0  0  0  0  0  0  0
   -1.3050   -2.1010   -0.1500 C   0  0  0  0  0  0  0  0  0  0  0  0
    0.2930    4.1450    1.0800 O   0  0  0  0  0  0  0  0  0  0  0  0
   -2.8000   -2.4630   -0.0500 C   0  0  0  0  0  0  0  0  0  0  0  0
   -3.4640   -2.1320    1.7320 Br  0  0  0  0  0  0  0  0  0  0  0  0
   -3.8410   -1.4240   -1.3000 Br  0  0  0  0  0  0  0  0  0  0  0  0
   -3.0610   -4.3320   -0.4540 Br  0  0  0  0  0  0  0  0  0  0  0  0
    2.1670    2.0970    0.8590 H   0  0  0  0  0  0  0  0  0  0  0  0
    1.8680    1.8930   -0.8700 H   0  0  0  0  0  0  0  0  0  0  0  0
   -1.4960    1.3310    1.5650 H   0  0  0  0  0  0  0  0  0  0  0  0
   -0.0130    1.7340    2.4360 H   0  0  0  0  0  0  0  0  0  0  0  0
    1.9380    4.2860   -0.1560 H   0  0  0  0  0  0  0  0  0  0  0  0
    0.4390    3.8390   -0.9780 H   0  0  0  0  0  0  0  0  0  0  0  0
   -1.6020    3.4970    0.4960 H   0  0  0  0  0  0  0  0  0  0  0  0
   -1.3670    3.7330    2.2310 H   0  0  0  0  0  0  0  0  0  0  0  0
   -0.9620   -2.3210   -1.1650 H   0  0  0  0  0  0  0  0  0  0  0  0
   -0.7510   -2.7280    0.5540 H   0  0  0  0  0  0  0  0  0  0  0  0
  1  4  1  0  0  0  0
  1  2  1  0  0  0  0
  1  3  1  0  0  0  0
  2  6  2  0  0  0  0
  2  5  1  0  0  0  0
  2  7  1  0  0  0  0
  3 16  1  0  0  0  0
  3  8  1  0  0  0  0
  3 17  1  0  0  0  0
  4 18  1  0  0  0  0
  4 19  1  0  0  0  0
  4  9  1  0  0  0  0
  5 10  1  0  0  0  0
  8 11  1  0  0  0  0
  8 20  1  0  0  0  0
  8 21  1  0  0  0  0
  9 23  1  0  0  0  0
  9 11  1  0  0  0  0
  9 22  1  0  0  0  0
 10 12  1  0  0  0  0
 10 25  1  0  0  0  0
 10 24  1  0  0  0  0
 12 13  1  0  0  0  0
 12 14  1  0  0  0  0
 12 15  1  0  0  0  0
M  END
