decoy-1025
 OpenBabel06062114513D

 80 79  0  0  0  0  0  0  0  0999 V2000
   -2.3240    3.7070   -3.9390 C   0  0  0  0  0  0  0  0  0  0  0  0
   -2.3330    2.4260   -4.3760 C   0  0  0  0  0  0  0  0  0  0  0  0
   -1.3080    4.6320   -4.4670 C   0  0  0  0  0  0  0  0  0  0  0  0
   -3.2640    4.2380   -2.9510 C   0  0  0  0  0  0  0  0  0  0  0  0
   -3.2640    1.3800   -3.9680 C   0  0  0  0  0  0  0  0  0  0  0  0
   -1.5650    5.0310   -5.9500 C   0  0  0  0  0  0  0  0  0  0  0  0
   -3.0100    0.0010   -4.6440 C   0  0  0  0  0  0  0  0  0  0  0  0
   -0.5590    5.9460   -6.4750 C   0  0  0  0  0  0  0  0  0  0  0  0
   -3.9470   -1.0420   -4.1950 C   0  0  0  0  0  0  0  0  0  0  0  0
    0.7130    5.6560   -6.8360 C   0  0  0  0  0  0  0  0  0  0  0  0
   -5.2400   -0.9750   -4.5960 C   0  0  0  0  0  0  0  0  0  0  0  0
   -3.4030   -2.1060   -3.3500 C   0  0  0  0  0  0  0  0  0  0  0  0
    1.5680    6.7530   -7.2890 C   0  0  0  0  0  0  0  0  0  0  0  0
    1.2970    4.3150   -6.8180 C   0  0  0  0  0  0  0  0  0  0  0  0
   -6.3430   -1.8480   -4.2140 C   0  0  0  0  0  0  0  0  0  0  0  0
   -6.8520   -1.5790   -2.7680 C   0  0  0  0  0  0  0  0  0  0  0  0
   -7.9570   -2.4500   -2.3850 C   0  0  0  0  0  0  0  0  0  0  0  0
   -9.2510   -2.3740   -2.7760 C   0  0  0  0  0  0  0  0  0  0  0  0
  -10.1980   -3.3980   -2.3040 C   0  0  0  0  0  0  0  0  0  0  0  0
   -9.7870   -1.3280   -3.6480 C   0  0  0  0  0  0  0  0  0  0  0  0
  -10.5660   -3.2410   -0.8010 C   0  0  0  0  0  0  0  0  0  0  0  0
  -11.5260   -4.2530   -0.3740 C   0  0  0  0  0  0  0  0  0  0  0  0
  -11.3290   -5.2720    0.4970 C   0  0  0  0  0  0  0  0  0  0  0  0
  -12.4290   -6.2040    0.7890 C   0  0  0  0  0  0  0  0  0  0  0  0
  -10.0340   -5.5060    1.1340 C   0  0  0  0  0  0  0  0  0  0  0  0
  -12.2920   -7.5380    0.0000 C   0  0  0  0  0  0  0  0  0  0  0  0
  -13.3990   -8.4570    0.2370 C   0  0  0  0  0  0  0  0  0  0  0  0
  -14.6590   -8.3760   -0.2530 C   0  0  0  0  0  0  0  0  0  0  0  0
  -15.6260   -9.3910    0.1620 C   0  0  0  0  0  0  0  0  0  0  0  0
  -15.1250   -7.3480   -1.1820 C   0  0  0  0  0  0  0  0  0  0  0  0
   -1.6370    2.1630   -5.0370 H   0  0  0  0  0  0  0  0  0  0  0  0
   -1.2820    5.5540   -3.8770 H   0  0  0  0  0  0  0  0  0  0  0  0
   -0.3220    4.1740   -4.3570 H   0  0  0  0  0  0  0  0  0  0  0  0
   -4.0080    3.5200   -2.6090 H   0  0  0  0  0  0  0  0  0  0  0  0
   -2.7140    4.5840   -2.0730 H   0  0  0  0  0  0  0  0  0  0  0  0
   -3.8020    5.0860   -3.3810 H   0  0  0  0  0  0  0  0  0  0  0  0
   -3.1900    1.2490   -2.8850 H   0  0  0  0  0  0  0  0  0  0  0  0
   -4.2770    1.7120   -4.2100 H   0  0  0  0  0  0  0  0  0  0  0  0
   -1.6320    4.1510   -6.5940 H   0  0  0  0  0  0  0  0  0  0  0  0
   -2.5410    5.5240   -5.9960 H   0  0  0  0  0  0  0  0  0  0  0  0
   -3.0800    0.1050   -5.7320 H   0  0  0  0  0  0  0  0  0  0  0  0
   -1.9760   -0.2900   -4.4280 H   0  0  0  0  0  0  0  0  0  0  0  0
   -0.8580    6.8920   -6.5740 H   0  0  0  0  0  0  0  0  0  0  0  0
   -5.4830   -0.2430   -5.2260 H   0  0  0  0  0  0  0  0  0  0  0  0
   -4.1260   -2.8670   -3.0630 H   0  0  0  0  0  0  0  0  0  0  0  0
   -2.5950   -2.6150   -3.8790 H   0  0  0  0  0  0  0  0  0  0  0  0
   -3.0010   -1.6710   -2.4340 H   0  0  0  0  0  0  0  0  0  0  0  0
    2.5750    6.4190   -7.5530 H   0  0  0  0  0  0  0  0  0  0  0  0
    1.1330    7.2260   -8.1720 H   0  0  0  0  0  0  0  0  0  0  0  0
    1.6640    7.5010   -6.4990 H   0  0  0  0  0  0  0  0  0  0  0  0
    0.6050    3.5310   -6.5160 H   0  0  0  0  0  0  0  0  0  0  0  0
    1.6570    4.0610   -7.8160 H   0  0  0  0  0  0  0  0  0  0  0  0
    2.1410    4.2960   -6.1260 H   0  0  0  0  0  0  0  0  0  0  0  0
   -7.1670   -1.6820   -4.9130 H   0  0  0  0  0  0  0  0  0  0  0  0
   -6.0500   -2.8950   -4.3320 H   0  0  0  0  0  0  0  0  0  0  0  0
   -6.0280   -1.7470   -2.0700 H   0  0  0  0  0  0  0  0  0  0  0  0
   -7.1420   -0.5320   -2.6500 H   0  0  0  0  0  0  0  0  0  0  0  0
   -7.7100   -3.1920   -1.7680 H   0  0  0  0  0  0  0  0  0  0  0  0
  -11.1240   -3.3600   -2.8870 H   0  0  0  0  0  0  0  0  0  0  0  0
   -9.7690   -4.3910   -2.4740 H   0  0  0  0  0  0  0  0  0  0  0  0
   -9.0690   -0.5540   -3.9150 H   0  0  0  0  0  0  0  0  0  0  0  0
  -10.1490   -1.7760   -4.5750 H   0  0  0  0  0  0  0  0  0  0  0  0
  -10.6230   -0.8320   -3.1510 H   0  0  0  0  0  0  0  0  0  0  0  0
   -9.6550   -3.2630   -0.2020 H   0  0  0  0  0  0  0  0  0  0  0  0
  -11.0220   -2.2590   -0.6440 H   0  0  0  0  0  0  0  0  0  0  0  0
  -12.4220   -4.1800   -0.8020 H   0  0  0  0  0  0  0  0  0  0  0  0
  -12.4450   -6.4190    1.8620 H   0  0  0  0  0  0  0  0  0  0  0  0
  -13.3980   -5.7480    0.5670 H   0  0  0  0  0  0  0  0  0  0  0  0
   -9.2640   -5.6550    0.3740 H   0  0  0  0  0  0  0  0  0  0  0  0
   -9.7640   -4.6510    1.7570 H   0  0  0  0  0  0  0  0  0  0  0  0
  -10.0360   -6.3890    1.7770 H   0  0  0  0  0  0  0  0  0  0  0  0
  -12.1910   -7.3470   -1.0710 H   0  0  0  0  0  0  0  0  0  0  0  0
  -11.3660   -8.0280    0.3160 H   0  0  0  0  0  0  0  0  0  0  0  0
  -13.1880   -9.2300    0.8300 H   0  0  0  0  0  0  0  0  0  0  0  0
  -16.6130   -9.2380   -0.2820 H   0  0  0  0  0  0  0  0  0  0  0  0
  -15.2780  -10.3830   -0.1360 H   0  0  0  0  0  0  0  0  0  0  0  0
  -15.7460   -9.3710    1.2480 H   0  0  0  0  0  0  0  0  0  0  0  0
  -14.3570   -6.6410   -1.4900 H   0  0  0  0  0  0  0  0  0  0  0  0
  -15.5090   -7.8220   -2.0880 H   0  0  0  0  0  0  0  0  0  0  0  0
  -15.9330   -6.7780   -0.7190 H   0  0  0  0  0  0  0  0  0  0  0  0
  1  4  1  0  0  0  0
  1  2  2  0  0  0  0
  1  3  1  0  0  0  0
  2  5  1  0  0  0  0
  2 31  1  0  0  0  0
  3 33  1  0  0  0  0
  3 32  1  0  0  0  0
  3  6  1  0  0  0  0
  4 34  1  0  0  0  0
  4 35  1  0  0  0  0
  4 36  1  0  0  0  0
  5 37  1  0  0  0  0
  5  7  1  0  0  0  0
  5 38  1  0  0  0  0
  6  8  1  0  0  0  0
  6 39  1  0  0  0  0
  6 40  1  0  0  0  0
  7 42  1  0  0  0  0
  7  9  1  0  0  0  0
  7 41  1  0  0  0  0
  8 10  2  0  0  0  0
  8 43  1  0  0  0  0
  9 12  1  0  0  0  0
  9 11  2  0  0  0  0
 10 14  1  0  0  0  0
 10 13  1  0  0  0  0
 11 15  1  0  0  0  0
 11 44  1  0  0  0  0
 12 45  1  0  0  0  0
 12 47  1  0  0  0  0
 12 46  1  0  0  0  0
 13 50  1  0  0  0  0
 13 48  1  0  0  0  0
 13 49  1  0  0  0  0
 14 51  1  0  0  0  0
 14 53  1  0  0  0  0
 14 52  1  0  0  0  0
 15 16  1  0  0  0  0
 15 54  1  0  0  0  0
 15 55  1  0  0  0  0
 16 57  1  0  0  0  0
 16 17  1  0  0  0  0
 16 56  1  0  0  0  0
 17 58  1  0  0  0  0
 17 18  2  0  0  0  0
 18 19  1  0  0  0  0
 18 20  1  0  0  0  0
 19 21  1  0  0  0  0
 19 59  1  0  0  0  0
 19 60  1  0  0  0  0
 20 63  1  0  0  0  0
 20 61  1  0  0  0  0
 20 62  1  0  0  0  0
 21 65  1  0  0  0  0
 21 22  1  0  0  0  0
 21 64  1  0  0  0  0
 22 23  2  0  0  0  0
 22 66  1  0  0  0  0
 23 24  1  0  0  0  0
 23 25  1  0  0  0  0
 24 67  1  0  0  0  0
 24 26  1  0  0  0  0
 24 68  1  0  0  0  0
 25 70  1  0  0  0  0
 25 71  1  0  0  0  0
 25 69  1  0  0  0  0
 26 27  1  0  0  0  0
 26 73  1  0  0  0  0
 26 72  1  0  0  0  0
 27 74  1  0  0  0  0
 27 28  2  0  0  0  0
 28 29  1  0  0  0  0
 28 30  1  0  0  0  0
 29 77  1  0  0  0  0
 29 75  1  0  0  0  0
 29 76  1  0  0  0  0
 30 80  1  0  0  0  0
 30 78  1  0  0  0  0
 30 79  1  0  0  0  0
M  END
