decoy-853
 OpenBabel06062114513D

 67 71  0  0  0  0  0  0  0  0999 V2000
   -0.3530    1.9990   -0.5810 P   0  0  0  0  0  0  0  0  0  0  0  0
   -0.1940    0.7260    0.3970 C   0  0  0  0  0  0  0  0  0  0  0  0
    0.9610    2.9140   -0.3470 C   0  0  0  0  0  0  0  0  0  0  0  0
   -1.7860    2.7530   -0.1340 C   0  0  0  0  0  0  0  0  0  0  0  0
    0.3070    0.8040    1.7230 C   0  0  0  0  0  0  0  0  0  0  0  0
   -0.5620   -0.5440   -0.1090 C   0  0  0  0  0  0  0  0  0  0  0  0
    2.2200    2.3620   -0.7000 C   0  0  0  0  0  0  0  0  0  0  0  0
    0.9360    4.2490    0.1310 C   0  0  0  0  0  0  0  0  0  0  0  0
   -2.1050    2.9970    1.3720 C   0  0  0  0  0  0  0  0  0  0  0  0
    0.4110   -0.3490    2.5230 C   0  0  0  0  0  0  0  0  0  0  0  0
   -0.4560   -1.6960    0.6920 C   0  0  0  0  0  0  0  0  0  0  0  0
    3.4080    3.0990   -0.5420 C   0  0  0  0  0  0  0  0  0  0  0  0
    2.1250    4.9860    0.2900 C   0  0  0  0  0  0  0  0  0  0  0  0
   -3.3160    3.9170    1.6350 C   0  0  0  0  0  0  0  0  0  0  0  0
   -2.5110    1.7800    2.0020 O   0  0  0  0  0  0  0  0  0  0  0  0
    0.0280   -1.5990    2.0080 C   0  0  0  0  0  0  0  0  0  0  0  0
    3.3620    4.4100   -0.0430 C   0  0  0  0  0  0  0  0  0  0  0  0
   -3.0020    5.4420    1.5730 C   0  0  0  0  0  0  0  0  0  0  0  0
   -3.7000    3.5370    2.9580 O   0  0  0  0  0  0  0  0  0  0  0  0
   -3.3550    2.1530    3.0990 C   0  0  0  0  0  0  0  0  0  0  0  0
   -4.2540    6.5620    1.5720 P   0  0  0  0  0  0  0  0  0  0  0  0
   -4.6430    1.2930    3.0570 C   0  0  0  0  0  0  0  0  0  0  0  0
   -2.5860    1.9610    4.4300 C   0  0  0  0  0  0  0  0  0  0  0  0
   -5.2750    6.0900    2.7280 C   0  0  0  0  0  0  0  0  0  0  0  0
   -5.1060    6.5800    0.1970 C   0  0  0  0  0  0  0  0  0  0  0  0
   -6.2440    5.0670    2.5590 C   0  0  0  0  0  0  0  0  0  0  0  0
   -5.2070    6.7500    3.9780 C   0  0  0  0  0  0  0  0  0  0  0  0
   -6.1840    7.4980    0.1010 C   0  0  0  0  0  0  0  0  0  0  0  0
   -4.8150    5.7830   -0.9400 C   0  0  0  0  0  0  0  0  0  0  0  0
   -7.0990    4.7010    3.6150 C   0  0  0  0  0  0  0  0  0  0  0  0
   -6.0640    6.3850    5.0340 C   0  0  0  0  0  0  0  0  0  0  0  0
   -6.9650    7.5860   -1.0660 C   0  0  0  0  0  0  0  0  0  0  0  0
   -5.5950    5.8710   -2.1080 C   0  0  0  0  0  0  0  0  0  0  0  0
   -7.0070    5.3590    4.8540 C   0  0  0  0  0  0  0  0  0  0  0  0
   -6.6730    6.7690   -2.1700 C   0  0  0  0  0  0  0  0  0  0  0  0
   -1.8250    3.7010   -0.6710 H   0  0  0  0  0  0  0  0  0  0  0  0
   -2.5930    2.1430   -0.5460 H   0  0  0  0  0  0  0  0  0  0  0  0
    0.5960    1.6990    2.1240 H   0  0  0  0  0  0  0  0  0  0  0  0
   -0.9210   -0.6490   -1.0630 H   0  0  0  0  0  0  0  0  0  0  0  0
    2.2930    1.4100   -1.0730 H   0  0  0  0  0  0  0  0  0  0  0  0
    0.0610    4.7160    0.3660 H   0  0  0  0  0  0  0  0  0  0  0  0
   -1.2290    3.3910    1.8940 H   0  0  0  0  0  0  0  0  0  0  0  0
    0.7670   -0.2780    3.4790 H   0  0  0  0  0  0  0  0  0  0  0  0
   -0.7310   -2.6070    0.3170 H   0  0  0  0  0  0  0  0  0  0  0  0
    4.3070    2.6800   -0.7930 H   0  0  0  0  0  0  0  0  0  0  0  0
    2.0890    5.9460    0.6410 H   0  0  0  0  0  0  0  0  0  0  0  0
   -4.1240    3.6600    0.9440 H   0  0  0  0  0  0  0  0  0  0  0  0
    0.1040   -2.4370    2.5890 H   0  0  0  0  0  0  0  0  0  0  0  0
    4.2250    4.9470    0.0700 H   0  0  0  0  0  0  0  0  0  0  0  0
   -2.3770    5.6840    2.4360 H   0  0  0  0  0  0  0  0  0  0  0  0
   -2.3910    5.6510    0.6950 H   0  0  0  0  0  0  0  0  0  0  0  0
   -4.3980    0.2340    3.1560 H   0  0  0  0  0  0  0  0  0  0  0  0
   -5.3170    1.5770    3.8680 H   0  0  0  0  0  0  0  0  0  0  0  0
   -5.1620    1.4410    2.1080 H   0  0  0  0  0  0  0  0  0  0  0  0
   -2.2860    0.9180    4.5500 H   0  0  0  0  0  0  0  0  0  0  0  0
   -1.6880    2.5820    4.4380 H   0  0  0  0  0  0  0  0  0  0  0  0
   -3.2120    2.2480    5.2770 H   0  0  0  0  0  0  0  0  0  0  0  0
   -6.3370    4.5720    1.6690 H   0  0  0  0  0  0  0  0  0  0  0  0
   -4.5290    7.5000    4.1440 H   0  0  0  0  0  0  0  0  0  0  0  0
   -6.4230    8.1150    0.8840 H   0  0  0  0  0  0  0  0  0  0  0  0
   -4.0310    5.1320   -0.9490 H   0  0  0  0  0  0  0  0  0  0  0  0
   -7.7880    3.9580    3.4820 H   0  0  0  0  0  0  0  0  0  0  0  0
   -6.0000    6.8660    5.9340 H   0  0  0  0  0  0  0  0  0  0  0  0
   -7.7430    8.2480   -1.1130 H   0  0  0  0  0  0  0  0  0  0  0  0
   -5.3740    5.2850   -2.9160 H   0  0  0  0  0  0  0  0  0  0  0  0
   -7.6280    5.0940    5.6210 H   0  0  0  0  0  0  0  0  0  0  0  0
   -7.2380    6.8340   -3.0200 H   0  0  0  0  0  0  0  0  0  0  0  0
  1  3  1  0  0  0  0
  1  4  1  0  0  0  0
  1  2  1  0  0  0  0
  2  5  2  0  0  0  0
  2  6  1  0  0  0  0
  3  8  2  0  0  0  0
  3  7  1  0  0  0  0
  4  9  1  0  0  0  0
  4 36  1  0  0  0  0
  4 37  1  0  0  0  0
  5 38  1  0  0  0  0
  5 10  1  0  0  0  0
  6 11  2  0  0  0  0
  6 39  1  0  0  0  0
  7 12  2  0  0  0  0
  7 40  1  0  0  0  0
  8 13  1  0  0  0  0
  8 41  1  0  0  0  0
  9 14  1  0  0  0  0
  9 42  1  0  0  0  0
  9 15  1  0  0  0  0
 10 43  1  0  0  0  0
 10 16  2  0  0  0  0
 11 16  1  0  0  0  0
 11 44  1  0  0  0  0
 12 17  1  0  0  0  0
 12 45  1  0  0  0  0
 13 46  1  0  0  0  0
 13 17  2  0  0  0  0
 14 47  1  0  0  0  0
 14 19  1  0  0  0  0
 14 18  1  0  0  0  0
 15 20  1  0  0  0  0
 16 48  1  0  0  0  0
 17 49  1  0  0  0  0
 18 50  1  0  0  0  0
 18 21  1  0  0  0  0
 18 51  1  0  0  0  0
 19 20  1  0  0  0  0
 20 23  1  0  0  0  0
 20 22  1  0  0  0  0
 21 24  1  0  0  0  0
 21 25  1  0  0  0  0
 22 52  1  0  0  0  0
 22 53  1  0  0  0  0
 22 54  1  0  0  0  0
 23 56  1  0  0  0  0
 23 55  1  0  0  0  0
 23 57  1  0  0  0  0
 24 27  2  0  0  0  0
 24 26  1  0  0  0  0
 25 28  2  0  0  0  0
 25 29  1  0  0  0  0
 26 30  2  0  0  0  0
 26 58  1  0  0  0  0
 27 59  1  0  0  0  0
 27 31  1  0  0  0  0
 28 60  1  0  0  0  0
 28 32  1  0  0  0  0
 29 33  2  0  0  0  0
 29 61  1  0  0  0  0
 30 34  1  0  0  0  0
 30 62  1  0  0  0  0
 31 63  1  0  0  0  0
 31 34  2  0  0  0  0
 32 35  2  0  0  0  0
 32 64  1  0  0  0  0
 33 35  1  0  0  0  0
 33 65  1  0  0  0  0
 34 66  1  0  0  0  0
 35 67  1  0  0  0  0
M  END
