decoy-118
 OpenBabel06062114503D

 54 56  0  0  0  0  0  0  0  0999 V2000
    0.2820    1.3370    0.3380 C   0  0  0  0  0  0  0  0  0  0  0  0
    0.1700   -0.1270    0.0410 C   0  0  0  0  0  0  0  0  0  0  0  0
    1.3720    2.1090   -0.1500 C   0  0  0  0  0  0  0  0  0  0  0  0
   -0.7180    1.9770    1.1090 C   0  0  0  0  0  0  0  0  0  0  0  0
   -1.0430   -0.4530   -0.9060 C   0  0  0  0  0  0  0  0  0  0  0  0
    1.5090   -0.7210   -0.3160 C   0  0  0  0  0  0  0  0  0  0  0  0
    1.4390    3.4880    0.1550 C   0  0  0  0  0  0  0  0  0  0  0  0
    2.4810    1.5040   -0.9320 C   0  0  0  0  0  0  0  0  0  0  0  0
   -0.6610    3.3570    1.3790 C   0  0  0  0  0  0  0  0  0  0  0  0
   -0.9790    0.0760   -2.2980 C   0  0  0  0  0  0  0  0  0  0  0  0
    2.2490    0.0360   -1.3670 C   0  0  0  0  0  0  0  0  0  0  0  0
    1.5120   -2.1930   -0.5610 C   0  0  0  0  0  0  0  0  0  0  0  0
    0.4400    4.1110    0.9260 C   0  0  0  0  0  0  0  0  0  0  0  0
   -1.6430    3.9450    2.1300 O   0  0  0  0  0  0  0  0  0  0  0  0
   -0.7800   -0.7920   -3.3980 C   0  0  0  0  0  0  0  0  0  0  0  0
   -1.1560    1.4550   -2.5600 C   0  0  0  0  0  0  0  0  0  0  0  0
    0.5160    5.4540    1.1810 O   0  0  0  0  0  0  0  0  0  0  0  0
   -2.7400    4.4360    1.3400 C   0  0  0  0  0  0  0  0  0  0  0  0
   -0.6790   -0.2940   -4.7150 C   0  0  0  0  0  0  0  0  0  0  0  0
   -1.0900    1.9550   -3.8710 C   0  0  0  0  0  0  0  0  0  0  0  0
    1.2260    5.7620    2.3930 C   0  0  0  0  0  0  0  0  0  0  0  0
   -0.8300    1.0890   -4.9530 C   0  0  0  0  0  0  0  0  0  0  0  0
   -0.5180   -1.1530   -5.7700 O   0  0  0  0  0  0  0  0  0  0  0  0
   -0.8190    1.5670   -6.2370 O   0  0  0  0  0  0  0  0  0  0  0  0
    0.8250   -1.6450   -5.9230 C   0  0  0  0  0  0  0  0  0  0  0  0
    0.3910    2.2580   -6.5930 C   0  0  0  0  0  0  0  0  0  0  0  0
   -0.0760   -0.5950    1.0010 H   0  0  0  0  0  0  0  0  0  0  0  0
   -1.5060    1.4380    1.4750 H   0  0  0  0  0  0  0  0  0  0  0  0
   -1.1660   -1.5380   -0.9290 H   0  0  0  0  0  0  0  0  0  0  0  0
   -1.9650   -0.0780   -0.4540 H   0  0  0  0  0  0  0  0  0  0  0  0
    2.2250    4.0500   -0.1830 H   0  0  0  0  0  0  0  0  0  0  0  0
    2.6620    2.1000   -1.8300 H   0  0  0  0  0  0  0  0  0  0  0  0
    3.3830    1.5470   -0.3140 H   0  0  0  0  0  0  0  0  0  0  0  0
    3.2270   -0.4200   -1.5450 H   0  0  0  0  0  0  0  0  0  0  0  0
    1.7100    0.0150   -2.3140 H   0  0  0  0  0  0  0  0  0  0  0  0
    2.5370   -2.5690   -0.5520 H   0  0  0  0  0  0  0  0  0  0  0  0
    0.9660   -2.7150    0.2270 H   0  0  0  0  0  0  0  0  0  0  0  0
    1.0640   -2.4410   -1.5240 H   0  0  0  0  0  0  0  0  0  0  0  0
   -0.6950   -1.7990   -3.2470 H   0  0  0  0  0  0  0  0  0  0  0  0
   -1.3540    2.1060   -1.7980 H   0  0  0  0  0  0  0  0  0  0  0  0
   -3.4680    4.8870    2.0140 H   0  0  0  0  0  0  0  0  0  0  0  0
   -2.4100    5.2020    0.6340 H   0  0  0  0  0  0  0  0  0  0  0  0
   -3.2330    3.6260    0.7970 H   0  0  0  0  0  0  0  0  0  0  0  0
   -1.2380    2.9530   -4.0380 H   0  0  0  0  0  0  0  0  0  0  0  0
    1.2340    6.8450    2.5150 H   0  0  0  0  0  0  0  0  0  0  0  0
    0.7340    5.3240    3.2650 H   0  0  0  0  0  0  0  0  0  0  0  0
    2.2610    5.4170    2.3460 H   0  0  0  0  0  0  0  0  0  0  0  0
    0.8550   -2.2790   -6.8090 H   0  0  0  0  0  0  0  0  0  0  0  0
    1.5380   -0.8300   -6.0620 H   0  0  0  0  0  0  0  0  0  0  0  0
    1.1280   -2.2480   -5.0630 H   0  0  0  0  0  0  0  0  0  0  0  0
    0.3160    2.5560   -7.6390 H   0  0  0  0  0  0  0  0  0  0  0  0
    0.5260    3.1600   -5.9910 H   0  0  0  0  0  0  0  0  0  0  0  0
    1.2670    1.6160   -6.4840 H   0  0  0  0  0  0  0  0  0  0  0  0
    2.0730   -0.6040    0.5300 H   0  0  0  0  0  0  0  0  0  0  0  0
  1  4  2  0  0  0  0
  1  2  1  0  0  0  0
  1  3  1  0  0  0  0
  2 27  1  0  0  0  0
  2  5  1  0  0  0  0
  2  6  1  0  0  0  0
  3  7  2  0  0  0  0
  3  8  1  0  0  0  0
  4  9  1  0  0  0  0
  4 28  1  0  0  0  0
  5 30  1  0  0  0  0
  5 10  1  0  0  0  0
  5 29  1  0  0  0  0
  6 54  1  0  0  0  0
  6 11  1  0  0  0  0
  6 12  1  0  0  0  0
  7 13  1  0  0  0  0
  7 31  1  0  0  0  0
  8 33  1  0  0  0  0
  8 11  1  0  0  0  0
  8 32  1  0  0  0  0
  9 14  1  0  0  0  0
  9 13  2  0  0  0  0
 10 15  2  0  0  0  0
 10 16  1  0  0  0  0
 11 34  1  0  0  0  0
 11 35  1  0  0  0  0
 12 36  1  0  0  0  0
 12 37  1  0  0  0  0
 12 38  1  0  0  0  0
 13 17  1  0  0  0  0
 14 18  1  0  0  0  0
 15 39  1  0  0  0  0
 15 19  1  0  0  0  0
 16 40  1  0  0  0  0
 16 20  2  0  0  0  0
 17 21  1  0  0  0  0
 18 41  1  0  0  0  0
 18 42  1  0  0  0  0
 18 43  1  0  0  0  0
 19 22  2  0  0  0  0
 19 23  1  0  0  0  0
 20 22  1  0  0  0  0
 20 44  1  0  0  0  0
 21 45  1  0  0  0  0
 21 46  1  0  0  0  0
 21 47  1  0  0  0  0
 22 24  1  0  0  0  0
 23 25  1  0  0  0  0
 24 26  1  0  0  0  0
 25 50  1  0  0  0  0
 25 48  1  0  0  0  0
 25 49  1  0  0  0  0
 26 53  1  0  0  0  0
 26 52  1  0  0  0  0
 26 51  1  0  0  0  0
M  END
