decoy-594
 OpenBabel06062114513D

 73 76  0  0  0  0  0  0  0  0999 V2000
    0.3720    1.2210   -0.8620 C   0  0  0  0  0  0  0  0  0  0  0  0
    0.1910   -0.3330   -0.9010 C   0  0  0  0  0  0  0  0  0  0  0  0
    1.8540    1.7140   -0.9870 C   0  0  0  0  0  0  0  0  0  0  0  0
   -0.4010    2.0820   -1.8760 C   0  0  0  0  0  0  0  0  0  0  0  0
    1.0130   -1.0030    0.2540 C   0  0  0  0  0  0  0  0  0  0  0  0
   -1.3040   -0.7440   -0.7680 C   0  0  0  0  0  0  0  0  0  0  0  0
    1.6290    3.2780   -0.9620 C   0  0  0  0  0  0  0  0  0  0  0  0
    2.6020    1.0940    0.2480 C   0  0  0  0  0  0  0  0  0  0  0  0
    2.5660    1.2840   -2.3260 C   0  0  0  0  0  0  0  0  0  0  0  0
    0.3190    3.4490   -1.8080 C   0  0  0  0  0  0  0  0  0  0  0  0
    0.8370   -2.5900    0.2510 C   0  0  0  0  0  0  0  0  0  0  0  0
    2.4860   -0.4590    0.3180 C   0  0  0  0  0  0  0  0  0  0  0  0
   -1.5320   -2.1290   -0.4050 C   0  0  0  0  0  0  0  0  0  0  0  0
    2.7760    4.2840   -1.3850 C   0  0  0  0  0  0  0  0  0  0  0  0
   -0.5970   -2.9840    0.0670 C   0  0  0  0  0  0  0  0  0  0  0  0
    1.3460   -3.1400    1.6430 C   0  0  0  0  0  0  0  0  0  0  0  0
    1.6750   -3.2550   -0.9030 C   0  0  0  0  0  0  0  0  0  0  0  0
    2.3160    5.7830   -1.2610 C   0  0  0  0  0  0  0  0  0  0  0  0
    4.0880    4.0650   -0.5730 C   0  0  0  0  0  0  0  0  0  0  0  0
   -1.0080   -4.3720    0.3660 C   0  0  0  0  0  0  0  0  0  0  0  0
    0.9770   -4.6140    1.9490 C   0  0  0  0  0  0  0  0  0  0  0  0
    3.2170    6.8330   -1.9740 C   0  0  0  0  0  0  0  0  0  0  0  0
   -0.5460   -4.8300    1.7730 C   0  0  0  0  0  0  0  0  0  0  0  0
    2.5880    8.2550   -1.9890 C   0  0  0  0  0  0  0  0  0  0  0  0
   -0.9530   -6.5270    2.0390 Cl  0  0  0  0  0  0  0  0  0  0  0  0
    3.5130    9.3820   -2.5490 C   0  0  0  0  0  0  0  0  0  0  0  0
    3.8580    9.1940   -4.0530 C   0  0  0  0  0  0  0  0  0  0  0  0
    2.8750   10.7800   -2.3170 C   0  0  0  0  0  0  0  0  0  0  0  0
   -0.0100    1.5300    0.1220 H   0  0  0  0  0  0  0  0  0  0  0  0
    0.5440   -0.7010   -1.8650 H   0  0  0  0  0  0  0  0  0  0  0  0
    0.5480   -0.6400    1.1790 H   0  0  0  0  0  0  0  0  0  0  0  0
   -0.3330    1.6510   -2.8780 H   0  0  0  0  0  0  0  0  0  0  0  0
   -1.4560    2.1720   -1.6040 H   0  0  0  0  0  0  0  0  0  0  0  0
   -1.7980   -0.1310   -0.0090 H   0  0  0  0  0  0  0  0  0  0  0  0
   -1.8020   -0.5520   -1.7230 H   0  0  0  0  0  0  0  0  0  0  0  0
    1.3730    3.5470    0.0710 H   0  0  0  0  0  0  0  0  0  0  0  0
    3.6620    1.3420    0.2250 H   0  0  0  0  0  0  0  0  0  0  0  0
    2.2000    1.5110    1.1750 H   0  0  0  0  0  0  0  0  0  0  0  0
    2.0990    1.7420   -3.1980 H   0  0  0  0  0  0  0  0  0  0  0  0
    3.6130    1.5840   -2.3210 H   0  0  0  0  0  0  0  0  0  0  0  0
    2.5460    0.2080   -2.4800 H   0  0  0  0  0  0  0  0  0  0  0  0
    0.5440    3.7830   -2.8250 H   0  0  0  0  0  0  0  0  0  0  0  0
   -0.3390    4.1880   -1.3430 H   0  0  0  0  0  0  0  0  0  0  0  0
    2.9520   -0.7820    1.2520 H   0  0  0  0  0  0  0  0  0  0  0  0
    3.0800   -0.8750   -0.4940 H   0  0  0  0  0  0  0  0  0  0  0  0
   -2.4750   -2.4370   -0.4840 H   0  0  0  0  0  0  0  0  0  0  0  0
    3.0100    4.1010   -2.4380 H   0  0  0  0  0  0  0  0  0  0  0  0
    2.4340   -3.0520    1.7110 H   0  0  0  0  0  0  0  0  0  0  0  0
    0.9270   -2.5360    2.4540 H   0  0  0  0  0  0  0  0  0  0  0  0
    1.3910   -2.8590   -1.8780 H   0  0  0  0  0  0  0  0  0  0  0  0
    2.7430   -3.0900   -0.7660 H   0  0  0  0  0  0  0  0  0  0  0  0
    1.5390   -4.3350   -0.9410 H   0  0  0  0  0  0  0  0  0  0  0  0
    1.3230    5.8920   -1.6980 H   0  0  0  0  0  0  0  0  0  0  0  0
    2.2300    6.0450   -0.2030 H   0  0  0  0  0  0  0  0  0  0  0  0
    4.5570    3.1210   -0.8380 H   0  0  0  0  0  0  0  0  0  0  0  0
    4.8290    4.8330   -0.7850 H   0  0  0  0  0  0  0  0  0  0  0  0
    3.8830    4.0730    0.4990 H   0  0  0  0  0  0  0  0  0  0  0  0
   -2.0930   -4.5090    0.3190 H   0  0  0  0  0  0  0  0  0  0  0  0
   -0.5850   -5.0380   -0.3890 H   0  0  0  0  0  0  0  0  0  0  0  0
    1.5320   -5.2820    1.2850 H   0  0  0  0  0  0  0  0  0  0  0  0
    1.2640   -4.8530    2.9770 H   0  0  0  0  0  0  0  0  0  0  0  0
    4.1830    6.8960   -1.4700 H   0  0  0  0  0  0  0  0  0  0  0  0
    3.3860    6.5050   -3.0020 H   0  0  0  0  0  0  0  0  0  0  0  0
   -1.0790   -4.2470    2.5300 H   0  0  0  0  0  0  0  0  0  0  0  0
    1.6620    8.2290   -2.5710 H   0  0  0  0  0  0  0  0  0  0  0  0
    2.3210    8.5090   -0.9580 H   0  0  0  0  0  0  0  0  0  0  0  0
    4.4530    9.3610   -1.9880 H   0  0  0  0  0  0  0  0  0  0  0  0
    4.4660   10.0260   -4.4130 H   0  0  0  0  0  0  0  0  0  0  0  0
    4.4310    8.2780   -4.2070 H   0  0  0  0  0  0  0  0  0  0  0  0
    2.9480    9.1430   -4.6540 H   0  0  0  0  0  0  0  0  0  0  0  0
    2.6880   10.9420   -1.2540 H   0  0  0  0  0  0  0  0  0  0  0  0
    3.5460   11.5690   -2.6640 H   0  0  0  0  0  0  0  0  0  0  0  0
    1.9290   10.8660   -2.8550 H   0  0  0  0  0  0  0  0  0  0  0  0
  1  3  1  0  0  0  0
  1 29  1  0  0  0  0
  1  2  1  0  0  0  0
  1  4  1  0  0  0  0
  2  6  1  0  0  0  0
  2  5  1  0  0  0  0
  2 30  1  0  0  0  0
  3  7  1  0  0  0  0
  3  8  1  0  0  0  0
  3  9  1  0  0  0  0
  4 10  1  0  0  0  0
  4 33  1  0  0  0  0
  4 32  1  0  0  0  0
  5 12  1  0  0  0  0
  5 31  1  0  0  0  0
  5 11  1  0  0  0  0
  6 13  1  0  0  0  0
  6 34  1  0  0  0  0
  6 35  1  0  0  0  0
  7 36  1  0  0  0  0
  7 10  1  0  0  0  0
  7 14  1  0  0  0  0
  8 12  1  0  0  0  0
  8 38  1  0  0  0  0
  8 37  1  0  0  0  0
  9 40  1  0  0  0  0
  9 39  1  0  0  0  0
  9 41  1  0  0  0  0
 10 43  1  0  0  0  0
 10 42  1  0  0  0  0
 11 16  1  0  0  0  0
 11 15  1  0  0  0  0
 11 17  1  0  0  0  0
 12 44  1  0  0  0  0
 12 45  1  0  0  0  0
 13 15  2  0  0  0  0
 13 46  1  0  0  0  0
 14 47  1  0  0  0  0
 14 18  1  0  0  0  0
 14 19  1  0  0  0  0
 15 20  1  0  0  0  0
 16 48  1  0  0  0  0
 16 21  1  0  0  0  0
 16 49  1  0  0  0  0
 17 51  1  0  0  0  0
 17 50  1  0  0  0  0
 17 52  1  0  0  0  0
 18 54  1  0  0  0  0
 18 22  1  0  0  0  0
 18 53  1  0  0  0  0
 19 57  1  0  0  0  0
 19 55  1  0  0  0  0
 19 56  1  0  0  0  0
 20 23  1  0  0  0  0
 20 58  1  0  0  0  0
 20 59  1  0  0  0  0
 21 61  1  0  0  0  0
 21 23  1  0  0  0  0
 21 60  1  0  0  0  0
 22 62  1  0  0  0  0
 22 24  1  0  0  0  0
 22 63  1  0  0  0  0
 23 25  1  0  0  0  0
 23 64  1  0  0  0  0
 24 66  1  0  0  0  0
 24 26  1  0  0  0  0
 24 65  1  0  0  0  0
 26 28  1  0  0  0  0
 26 67  1  0  0  0  0
 26 27  1  0  0  0  0
 27 68  1  0  0  0  0
 27 69  1  0  0  0  0
 27 70  1  0  0  0  0
 28 71  1  0  0  0  0
 28 72  1  0  0  0  0
 28 73  1  0  0  0  0
M  END
