decoy-439
 OpenBabel06062114513D

 71 76  0  0  0  0  0  0  0  0999 V2000
   -0.8030    2.5110   -2.2520 C   0  0  0  0  0  0  0  0  0  0  0  0
   -1.4940    1.3420   -3.2580 P   0  0  0  0  0  0  0  0  0  0  0  0
    0.8870    2.4050   -2.3000 P   0  0  0  0  0  0  0  0  0  0  0  0
   -1.4010    4.0880   -2.4020 P   0  0  0  0  0  0  0  0  0  0  0  0
   -0.8470   -0.1170   -3.0080 C   0  0  0  0  0  0  0  0  0  0  0  0
   -3.0480    1.1140   -2.8910 C   0  0  0  0  0  0  0  0  0  0  0  0
    1.5730    3.2520   -3.4950 C   0  0  0  0  0  0  0  0  0  0  0  0
    1.4560    2.7790   -0.8390 C   0  0  0  0  0  0  0  0  0  0  0  0
   -2.9270    4.1600   -1.8820 C   0  0  0  0  0  0  0  0  0  0  0  0
   -1.1980    4.7710   -3.8490 C   0  0  0  0  0  0  0  0  0  0  0  0
   -0.5870   -0.6730   -1.7300 C   0  0  0  0  0  0  0  0  0  0  0  0
   -0.4800   -0.8660   -4.1530 C   0  0  0  0  0  0  0  0  0  0  0  0
   -3.5410    0.8550   -1.5860 C   0  0  0  0  0  0  0  0  0  0  0  0
   -3.9800    1.1730   -3.9560 C   0  0  0  0  0  0  0  0  0  0  0  0
    2.4270    4.3670   -3.2970 C   0  0  0  0  0  0  0  0  0  0  0  0
    1.3760    2.8020   -4.8260 C   0  0  0  0  0  0  0  0  0  0  0  0
    1.2450    4.0220   -0.1920 C   0  0  0  0  0  0  0  0  0  0  0  0
    2.1740    1.7740   -0.1470 C   0  0  0  0  0  0  0  0  0  0  0  0
   -3.1480    4.0280   -0.4870 C   0  0  0  0  0  0  0  0  0  0  0  0
   -4.0520    4.3970   -2.7130 C   0  0  0  0  0  0  0  0  0  0  0  0
   -0.4870    5.9950   -3.8850 C   0  0  0  0  0  0  0  0  0  0  0  0
   -1.6660    4.2340   -5.0730 C   0  0  0  0  0  0  0  0  0  0  0  0
    0.0060   -1.9430   -1.6030 C   0  0  0  0  0  0  0  0  0  0  0  0
    0.1100   -2.1370   -4.0250 C   0  0  0  0  0  0  0  0  0  0  0  0
   -4.9170    0.6780   -1.3550 C   0  0  0  0  0  0  0  0  0  0  0  0
   -5.3570    0.9960   -3.7240 C   0  0  0  0  0  0  0  0  0  0  0  0
    3.0090    5.0410   -4.3870 C   0  0  0  0  0  0  0  0  0  0  0  0
    1.9570    3.4740   -5.9160 C   0  0  0  0  0  0  0  0  0  0  0  0
    1.7460    4.2550    1.1030 C   0  0  0  0  0  0  0  0  0  0  0  0
    2.6730    2.0070    1.1480 C   0  0  0  0  0  0  0  0  0  0  0  0
   -4.4470    4.0840    0.0500 C   0  0  0  0  0  0  0  0  0  0  0  0
   -5.3510    4.4520   -2.1750 C   0  0  0  0  0  0  0  0  0  0  0  0
   -0.2400    6.6530   -5.1040 C   0  0  0  0  0  0  0  0  0  0  0  0
   -1.4200    4.8910   -6.2920 C   0  0  0  0  0  0  0  0  0  0  0  0
    0.3510   -2.6770   -2.7500 C   0  0  0  0  0  0  0  0  0  0  0  0
   -5.8260    0.7510   -2.4240 C   0  0  0  0  0  0  0  0  0  0  0  0
    2.7680    4.5990   -5.6980 C   0  0  0  0  0  0  0  0  0  0  0  0
    2.4600    3.2470    1.7730 C   0  0  0  0  0  0  0  0  0  0  0  0
   -5.5500    4.2910   -0.7940 C   0  0  0  0  0  0  0  0  0  0  0  0
   -0.7040    6.0990   -6.3090 C   0  0  0  0  0  0  0  0  0  0  0  0
   -1.0610    2.2110   -1.2370 H   0  0  0  0  0  0  0  0  0  0  0  0
   -0.7980   -0.1580   -0.8750 H   0  0  0  0  0  0  0  0  0  0  0  0
   -0.6390   -0.5010   -5.0970 H   0  0  0  0  0  0  0  0  0  0  0  0
   -2.9160    0.8130   -0.7820 H   0  0  0  0  0  0  0  0  0  0  0  0
   -3.6750    1.3420   -4.9190 H   0  0  0  0  0  0  0  0  0  0  0  0
    2.6430    4.7140   -2.3630 H   0  0  0  0  0  0  0  0  0  0  0  0
    0.8060    1.9770   -5.0280 H   0  0  0  0  0  0  0  0  0  0  0  0
    0.7420    4.7800   -0.6550 H   0  0  0  0  0  0  0  0  0  0  0  0
    2.3420    0.8560   -0.5710 H   0  0  0  0  0  0  0  0  0  0  0  0
   -2.3680    3.8830    0.1610 H   0  0  0  0  0  0  0  0  0  0  0  0
   -3.9530    4.5240   -3.7190 H   0  0  0  0  0  0  0  0  0  0  0  0
   -0.1290    6.4260   -3.0260 H   0  0  0  0  0  0  0  0  0  0  0  0
   -2.2010    3.3680   -5.0980 H   0  0  0  0  0  0  0  0  0  0  0  0
    0.1920   -2.3310   -0.6750 H   0  0  0  0  0  0  0  0  0  0  0  0
    0.3660   -2.6680   -4.8600 H   0  0  0  0  0  0  0  0  0  0  0  0
   -5.2590    0.5030   -0.4070 H   0  0  0  0  0  0  0  0  0  0  0  0
   -6.0170    1.0460   -4.5030 H   0  0  0  0  0  0  0  0  0  0  0  0
    3.6110    5.8510   -4.2250 H   0  0  0  0  0  0  0  0  0  0  0  0
    1.7920    3.1420   -6.8690 H   0  0  0  0  0  0  0  0  0  0  0  0
    1.5920    5.1580    1.5560 H   0  0  0  0  0  0  0  0  0  0  0  0
    3.1900    1.2720    1.6360 H   0  0  0  0  0  0  0  0  0  0  0  0
   -4.5890    3.9760    1.0570 H   0  0  0  0  0  0  0  0  0  0  0  0
   -6.1520    4.6100   -2.7900 H   0  0  0  0  0  0  0  0  0  0  0  0
    0.2820    7.5320   -5.1150 H   0  0  0  0  0  0  0  0  0  0  0  0
   -1.7640    4.4900   -7.1680 H   0  0  0  0  0  0  0  0  0  0  0  0
    0.7830   -3.5990   -2.6580 H   0  0  0  0  0  0  0  0  0  0  0  0
   -6.8270    0.6260   -2.2550 H   0  0  0  0  0  0  0  0  0  0  0  0
    3.1910    5.0880   -6.4900 H   0  0  0  0  0  0  0  0  0  0  0  0
    2.8230    3.4160    2.7140 H   0  0  0  0  0  0  0  0  0  0  0  0
   -6.4940    4.3300   -0.4040 H   0  0  0  0  0  0  0  0  0  0  0  0
   -0.5230    6.5760   -7.1950 H   0  0  0  0  0  0  0  0  0  0  0  0
  1 41  1  0  0  0  0
  1  2  1  0  0  0  0
  1  3  1  0  0  0  0
  1  4  1  0  0  0  0
  2  5  1  0  0  0  0
  2  6  1  0  0  0  0
  3  8  1  0  0  0  0
  3  7  1  0  0  0  0
  4  9  1  0  0  0  0
  4 10  1  0  0  0  0
  5 11  2  0  0  0  0
  5 12  1  0  0  0  0
  6 13  2  0  0  0  0
  6 14  1  0  0  0  0
  7 15  2  0  0  0  0
  7 16  1  0  0  0  0
  8 17  2  0  0  0  0
  8 18  1  0  0  0  0
  9 19  2  0  0  0  0
  9 20  1  0  0  0  0
 10 21  2  0  0  0  0
 10 22  1  0  0  0  0
 11 23  1  0  0  0  0
 11 42  1  0  0  0  0
 12 24  2  0  0  0  0
 12 43  1  0  0  0  0
 13 25  1  0  0  0  0
 13 44  1  0  0  0  0
 14 26  2  0  0  0  0
 14 45  1  0  0  0  0
 15 46  1  0  0  0  0
 15 27  1  0  0  0  0
 16 28  2  0  0  0  0
 16 47  1  0  0  0  0
 17 29  1  0  0  0  0
 17 48  1  0  0  0  0
 18 30  2  0  0  0  0
 18 49  1  0  0  0  0
 19 31  1  0  0  0  0
 19 50  1  0  0  0  0
 20 32  2  0  0  0  0
 20 51  1  0  0  0  0
 21 52  1  0  0  0  0
 21 33  1  0  0  0  0
 22 34  2  0  0  0  0
 22 53  1  0  0  0  0
 23 54  1  0  0  0  0
 23 35  2  0  0  0  0
 24 35  1  0  0  0  0
 24 55  1  0  0  0  0
 25 56  1  0  0  0  0
 25 36  2  0  0  0  0
 26 36  1  0  0  0  0
 26 57  1  0  0  0  0
 27 58  1  0  0  0  0
 27 37  2  0  0  0  0
 28 37  1  0  0  0  0
 28 59  1  0  0  0  0
 29 60  1  0  0  0  0
 29 38  2  0  0  0  0
 30 61  1  0  0  0  0
 30 38  1  0  0  0  0
 31 62  1  0  0  0  0
 31 39  2  0  0  0  0
 32 39  1  0  0  0  0
 32 63  1  0  0  0  0
 33 40  2  0  0  0  0
 33 64  1  0  0  0  0
 34 40  1  0  0  0  0
 34 65  1  0  0  0  0
 35 66  1  0  0  0  0
 36 67  1  0  0  0  0
 37 68  1  0  0  0  0
 38 69  1  0  0  0  0
 39 70  1  0  0  0  0
 40 71  1  0  0  0  0
M  END
