decoy-11
 OpenBabel06062114503D

 43 45  0  0  0  0  0  0  0  0999 V2000
    2.8270    0.9800    1.5630 N   0  0  0  0  0  0  0  0  0  0  0  0
    1.6500    0.6180    2.2520 C   0  0  0  0  0  0  0  0  0  0  0  0
    3.8130   -0.0140    1.2650 C   0  0  0  0  0  0  0  0  0  0  0  0
    2.2320    1.8270    0.7510 C   0  0  0  0  0  0  0  0  0  0  0  0
    0.9210    1.6030    1.2940 C   0  0  0  0  0  0  0  0  0  0  0  0
    1.5120   -1.1690    2.0290 S   0  0  0  0  0  0  0  0  0  0  0  0
    3.3230   -1.3170    1.9920 C   0  0  0  0  0  0  0  0  0  0  0  0
    5.1800    0.4360    1.6150 C   0  0  0  0  0  0  0  0  0  0  0  0
    2.5260    2.0540   -0.4160 O   0  0  0  0  0  0  0  0  0  0  0  0
   -0.0220    1.0430    0.3750 N   0  0  0  0  0  0  0  0  0  0  0  0
    3.8200   -1.4580    3.4670 C   0  0  0  0  0  0  0  0  0  0  0  0
    3.6880   -2.6060    1.1980 C   0  0  0  0  0  0  0  0  0  0  0  0
    6.2470   -0.3270    1.2880 O   0  0  0  0  0  0  0  0  0  0  0  0
    5.4110    1.6220    2.2230 O   0  0  0  0  0  0  0  0  0  0  0  0
   -1.2480    0.6430    0.6850 C   0  0  0  0  0  0  0  0  0  0  0  0
   -2.1440    0.0790   -0.3170 C   0  0  0  0  0  0  0  0  0  0  0  0
   -1.6570    0.7350    1.8370 O   0  0  0  0  0  0  0  0  0  0  0  0
   -3.3380    0.9490   -0.5350 C   0  0  0  0  0  0  0  0  0  0  0  0
   -1.4970   -0.1800   -1.6160 C   0  0  0  0  0  0  0  0  0  0  0  0
   -3.1960    2.2580   -1.0590 C   0  0  0  0  0  0  0  0  0  0  0  0
   -4.6400    0.4880   -0.2240 C   0  0  0  0  0  0  0  0  0  0  0  0
   -4.3200    3.0800   -1.2640 C   0  0  0  0  0  0  0  0  0  0  0  0
   -5.7650    1.3090   -0.4280 C   0  0  0  0  0  0  0  0  0  0  0  0
   -5.6050    2.6050   -0.9480 C   0  0  0  0  0  0  0  0  0  0  0  0
    1.6660    0.9350    3.2990 H   0  0  0  0  0  0  0  0  0  0  0  0
    3.8140   -0.1820    0.1820 H   0  0  0  0  0  0  0  0  0  0  0  0
    0.5500    2.5000    1.8000 H   0  0  0  0  0  0  0  0  0  0  0  0
    0.2570    0.9590   -0.5500 H   0  0  0  0  0  0  0  0  0  0  0  0
    4.8960   -1.6390    3.4960 H   0  0  0  0  0  0  0  0  0  0  0  0
    3.3250   -2.2950    3.9650 H   0  0  0  0  0  0  0  0  0  0  0  0
    3.6150   -0.5510    4.0400 H   0  0  0  0  0  0  0  0  0  0  0  0
    3.2820   -2.5680    0.1850 H   0  0  0  0  0  0  0  0  0  0  0  0
    3.2850   -3.4940    1.6910 H   0  0  0  0  0  0  0  0  0  0  0  0
    4.7720   -2.7160    1.1280 H   0  0  0  0  0  0  0  0  0  0  0  0
   -2.4500   -0.9050    0.0510 H   0  0  0  0  0  0  0  0  0  0  0  0
   -1.1630    0.6980   -2.0190 H   0  0  0  0  0  0  0  0  0  0  0  0
   -2.1700   -0.6110   -2.2540 H   0  0  0  0  0  0  0  0  0  0  0  0
   -0.7060   -0.8140   -1.4840 H   0  0  0  0  0  0  0  0  0  0  0  0
   -2.2700    2.6230   -1.2940 H   0  0  0  0  0  0  0  0  0  0  0  0
   -4.7810   -0.4510    0.1570 H   0  0  0  0  0  0  0  0  0  0  0  0
   -4.2030    4.0230   -1.6420 H   0  0  0  0  0  0  0  0  0  0  0  0
   -6.6990    0.9630   -0.1980 H   0  0  0  0  0  0  0  0  0  0  0  0
   -6.4220    3.2020   -1.0960 H   0  0  0  0  0  0  0  0  0  0  0  0
  1  2  1  0  0  0  0
  1  3  1  0  0  0  0
  1  4  1  0  0  0  0
  2  5  1  0  0  0  0
  2 25  1  0  0  0  0
  2  6  1  0  0  0  0
  3 26  1  0  0  0  0
  3  8  1  0  0  0  0
  3  7  1  0  0  0  0
  4  5  1  0  0  0  0
  4  9  2  0  0  0  0
  5 27  1  0  0  0  0
  5 10  1  0  0  0  0
  6  7  1  0  0  0  0
  7 11  1  0  0  0  0
  7 12  1  0  0  0  0
  8 14  1  0  0  0  0
  8 13  2  0  0  0  0
 10 15  1  0  0  0  0
 10 28  1  0  0  0  0
 11 29  1  0  0  0  0
 11 30  1  0  0  0  0
 11 31  1  0  0  0  0
 12 33  1  0  0  0  0
 12 32  1  0  0  0  0
 12 34  1  0  0  0  0
 15 17  2  0  0  0  0
 15 16  1  0  0  0  0
 16 35  1  0  0  0  0
 16 18  1  0  0  0  0
 16 19  1  0  0  0  0
 18 21  2  0  0  0  0
 18 20  1  0  0  0  0
 19 38  1  0  0  0  0
 19 36  1  0  0  0  0
 19 37  1  0  0  0  0
 20 22  2  0  0  0  0
 20 39  1  0  0  0  0
 21 40  1  0  0  0  0
 21 23  1  0  0  0  0
 22 24  1  0  0  0  0
 22 41  1  0  0  0  0
 23 42  1  0  0  0  0
 23 24  2  0  0  0  0
 24 43  1  0  0  0  0
M  END
