decoy-82
 OpenBabel06062114503D

 62 66  0  0  0  0  0  0  0  0999 V2000
    0.0770    1.9370   -0.7850 P   0  0  0  0  0  0  0  0  0  0  0  0
   -0.3060    0.5550   -0.0340 C   0  0  0  0  0  0  0  0  0  0  0  0
    1.4260    2.6220   -0.2240 C   0  0  0  0  0  0  0  0  0  0  0  0
   -1.1620    3.0500   -0.5510 C   0  0  0  0  0  0  0  0  0  0  0  0
    0.4860   -0.0640    0.9680 C   0  0  0  0  0  0  0  0  0  0  0  0
   -1.4590   -0.1440   -0.4800 C   0  0  0  0  0  0  0  0  0  0  0  0
    2.4400    2.9200   -1.1660 C   0  0  0  0  0  0  0  0  0  0  0  0
    1.6500    2.9670    1.1330 C   0  0  0  0  0  0  0  0  0  0  0  0
   -1.4610    3.5370    0.8360 C   0  0  0  0  0  0  0  0  0  0  0  0
    0.1000   -1.2840    1.5540 C   0  0  0  0  0  0  0  0  0  0  0  0
   -1.8470   -1.3630    0.1050 C   0  0  0  0  0  0  0  0  0  0  0  0
    3.6340    3.5500   -0.7660 C   0  0  0  0  0  0  0  0  0  0  0  0
    2.8430    3.5970    1.5320 C   0  0  0  0  0  0  0  0  0  0  0  0
   -1.0780    4.8230    1.3460 C   0  0  0  0  0  0  0  0  0  0  0  0
   -2.2320    2.6810    1.6650 C   0  0  0  0  0  0  0  0  0  0  0  0
   -1.0720   -1.9300    1.1290 C   0  0  0  0  0  0  0  0  0  0  0  0
    3.8350    3.8910    0.5820 C   0  0  0  0  0  0  0  0  0  0  0  0
   -0.2450    5.8210    0.5970 C   0  0  0  0  0  0  0  0  0  0  0  0
   -1.4490    5.1640    2.6730 C   0  0  0  0  0  0  0  0  0  0  0  0
   -2.5960    3.0490    2.9680 C   0  0  0  0  0  0  0  0  0  0  0  0
   -0.9910    7.1570   -0.1020 P   0  0  0  0  0  0  0  0  0  0  0  0
   -2.2000    4.2920    3.4750 C   0  0  0  0  0  0  0  0  0  0  0  0
   -1.6250    8.0790    1.0670 C   0  0  0  0  0  0  0  0  0  0  0  0
   -2.0880    6.5850   -1.1380 C   0  0  0  0  0  0  0  0  0  0  0  0
   -2.9960    8.4380    1.1570 C   0  0  0  0  0  0  0  0  0  0  0  0
   -0.7350    8.6590    2.0090 C   0  0  0  0  0  0  0  0  0  0  0  0
   -3.2280    5.8270   -0.7660 C   0  0  0  0  0  0  0  0  0  0  0  0
   -1.8750    6.8420   -2.5140 C   0  0  0  0  0  0  0  0  0  0  0  0
   -3.4660    9.2710    2.1890 C   0  0  0  0  0  0  0  0  0  0  0  0
   -1.2040    9.4920    3.0420 C   0  0  0  0  0  0  0  0  0  0  0  0
   -4.1180    5.3340   -1.7380 C   0  0  0  0  0  0  0  0  0  0  0  0
   -2.7650    6.3490   -3.4860 C   0  0  0  0  0  0  0  0  0  0  0  0
   -2.5720    9.7910    3.1380 C   0  0  0  0  0  0  0  0  0  0  0  0
   -3.8850    5.5930   -3.1000 C   0  0  0  0  0  0  0  0  0  0  0  0
   -0.9510    3.8820   -1.2190 H   0  0  0  0  0  0  0  0  0  0  0  0
   -2.0780    2.6230   -0.9640 H   0  0  0  0  0  0  0  0  0  0  0  0
    1.3680    0.3410    1.2770 H   0  0  0  0  0  0  0  0  0  0  0  0
   -2.0400    0.2230   -1.2380 H   0  0  0  0  0  0  0  0  0  0  0  0
    2.3250    2.6920   -2.1580 H   0  0  0  0  0  0  0  0  0  0  0  0
    0.9550    2.7530    1.8510 H   0  0  0  0  0  0  0  0  0  0  0  0
    0.6800   -1.7090    2.2800 H   0  0  0  0  0  0  0  0  0  0  0  0
   -2.6890   -1.8420   -0.2210 H   0  0  0  0  0  0  0  0  0  0  0  0
    4.3560    3.7630   -1.4580 H   0  0  0  0  0  0  0  0  0  0  0  0
    2.9900    3.8390    2.5150 H   0  0  0  0  0  0  0  0  0  0  0  0
   -2.5530    1.7740    1.3200 H   0  0  0  0  0  0  0  0  0  0  0  0
   -1.3510   -2.8180    1.5520 H   0  0  0  0  0  0  0  0  0  0  0  0
    4.7020    4.3490    0.8710 H   0  0  0  0  0  0  0  0  0  0  0  0
    0.5320    6.1850    1.2700 H   0  0  0  0  0  0  0  0  0  0  0  0
    0.3180    5.3390   -0.1980 H   0  0  0  0  0  0  0  0  0  0  0  0
   -1.1620    6.0550    3.0810 H   0  0  0  0  0  0  0  0  0  0  0  0
   -3.1500    2.4130    3.5460 H   0  0  0  0  0  0  0  0  0  0  0  0
   -2.4570    4.5620    4.4270 H   0  0  0  0  0  0  0  0  0  0  0  0
   -3.6760    8.1230    0.4670 H   0  0  0  0  0  0  0  0  0  0  0  0
    0.2730    8.4850    1.9620 H   0  0  0  0  0  0  0  0  0  0  0  0
   -3.4330    5.6340    0.2160 H   0  0  0  0  0  0  0  0  0  0  0  0
   -1.0660    7.3830   -2.8320 H   0  0  0  0  0  0  0  0  0  0  0  0
   -4.4590    9.5090    2.2420 H   0  0  0  0  0  0  0  0  0  0  0  0
   -0.5470    9.8880    3.7190 H   0  0  0  0  0  0  0  0  0  0  0  0
   -4.9350    4.7890   -1.4550 H   0  0  0  0  0  0  0  0  0  0  0  0
   -2.5970    6.5380   -4.4770 H   0  0  0  0  0  0  0  0  0  0  0  0
   -2.9130   10.4000    3.8860 H   0  0  0  0  0  0  0  0  0  0  0  0
   -4.5310    5.2350   -3.8070 H   0  0  0  0  0  0  0  0  0  0  0  0
  1  4  1  0  0  0  0
  1  3  1  0  0  0  0
  1  2  1  0  0  0  0
  2  5  2  0  0  0  0
  2  6  1  0  0  0  0
  3  8  2  0  0  0  0
  3  7  1  0  0  0  0
  4  9  1  0  0  0  0
  4 35  1  0  0  0  0
  4 36  1  0  0  0  0
  5 37  1  0  0  0  0
  5 10  1  0  0  0  0
  6 11  2  0  0  0  0
  6 38  1  0  0  0  0
  7 12  2  0  0  0  0
  7 39  1  0  0  0  0
  8 13  1  0  0  0  0
  8 40  1  0  0  0  0
  9 14  2  0  0  0  0
  9 15  1  0  0  0  0
 10 41  1  0  0  0  0
 10 16  2  0  0  0  0
 11 16  1  0  0  0  0
 11 42  1  0  0  0  0
 12 17  1  0  0  0  0
 12 43  1  0  0  0  0
 13 44  1  0  0  0  0
 13 17  2  0  0  0  0
 14 19  1  0  0  0  0
 14 18  1  0  0  0  0
 15 20  2  0  0  0  0
 15 45  1  0  0  0  0
 16 46  1  0  0  0  0
 17 47  1  0  0  0  0
 18 48  1  0  0  0  0
 18 21  1  0  0  0  0
 18 49  1  0  0  0  0
 19 50  1  0  0  0  0
 19 22  2  0  0  0  0
 20 22  1  0  0  0  0
 20 51  1  0  0  0  0
 21 23  1  0  0  0  0
 21 24  1  0  0  0  0
 22 52  1  0  0  0  0
 23 25  2  0  0  0  0
 23 26  1  0  0  0  0
 24 27  2  0  0  0  0
 24 28  1  0  0  0  0
 25 29  1  0  0  0  0
 25 53  1  0  0  0  0
 26 30  2  0  0  0  0
 26 54  1  0  0  0  0
 27 55  1  0  0  0  0
 27 31  1  0  0  0  0
 28 32  2  0  0  0  0
 28 56  1  0  0  0  0
 29 57  1  0  0  0  0
 29 33  2  0  0  0  0
 30 33  1  0  0  0  0
 30 58  1  0  0  0  0
 31 59  1  0  0  0  0
 31 34  2  0  0  0  0
 32 34  1  0  0  0  0
 32 60  1  0  0  0  0
 33 61  1  0  0  0  0
 34 62  1  0  0  0  0
M  END
