decoy-608
 OpenBabel06062114513D

 37 38  0  0  0  0  0  0  0  0999 V2000
   -0.0900    1.2320   -0.0240 C   0  0  0  0  0  0  0  0  0  0  0  0
   -0.5860    1.1530    1.3150 C   0  0  0  0  0  0  0  0  0  0  0  0
    1.0200    1.9850   -0.3860 C   0  0  0  0  0  0  0  0  0  0  0  0
   -0.7760    0.5620   -1.0660 C   0  0  0  0  0  0  0  0  0  0  0  0
   -1.7770    0.4180    1.5460 C   0  0  0  0  0  0  0  0  0  0  0  0
    0.0600    1.7600    2.4320 C   0  0  0  0  0  0  0  0  0  0  0  0
    1.0060    3.3780   -0.4360 C   0  0  0  0  0  0  0  0  0  0  0  0
    2.0390    1.3760   -0.6850 O   0  0  0  0  0  0  0  0  0  0  0  0
   -1.9460   -0.1680   -0.8060 C   0  0  0  0  0  0  0  0  0  0  0  0
   -2.4500   -0.2360    0.5000 C   0  0  0  0  0  0  0  0  0  0  0  0
   -0.5840    1.9640    3.6050 O   0  0  0  0  0  0  0  0  0  0  0  0
    1.3820    2.0420    2.4360 O   0  0  0  0  0  0  0  0  0  0  0  0
    2.1170    4.1240    0.0260 C   0  0  0  0  0  0  0  0  0  0  0  0
   -0.1080    4.0870   -0.9460 C   0  0  0  0  0  0  0  0  0  0  0  0
    2.1120    5.5300   -0.0150 C   0  0  0  0  0  0  0  0  0  0  0  0
   -0.1110    5.4930   -0.9880 C   0  0  0  0  0  0  0  0  0  0  0  0
    0.9990    6.2350   -0.5250 C   0  0  0  0  0  0  0  0  0  0  0  0
    0.9830    7.7230   -0.5700 C   0  0  0  0  0  0  0  0  0  0  0  0
    1.0730    8.2770   -2.0180 C   0  0  0  0  0  0  0  0  0  0  0  0
    1.0830    9.8290   -2.0630 C   0  0  0  0  0  0  0  0  0  0  0  0
    1.1660   10.4090   -3.4180 C   0  0  0  0  0  0  0  0  0  0  0  0
    1.1790   11.7520   -3.5630 O   0  0  0  0  0  0  0  0  0  0  0  0
    1.2320    9.6490   -4.5350 O   0  0  0  0  0  0  0  0  0  0  0  0
   -0.4370    0.6110   -2.0320 H   0  0  0  0  0  0  0  0  0  0  0  0
   -2.1680    0.3320    2.4880 H   0  0  0  0  0  0  0  0  0  0  0  0
   -2.4340   -0.6440   -1.5680 H   0  0  0  0  0  0  0  0  0  0  0  0
   -3.3030   -0.7650    0.6910 H   0  0  0  0  0  0  0  0  0  0  0  0
    2.9410    3.6490    0.4050 H   0  0  0  0  0  0  0  0  0  0  0  0
   -0.9280    3.5870   -1.2970 H   0  0  0  0  0  0  0  0  0  0  0  0
    2.9320    6.0360    0.3290 H   0  0  0  0  0  0  0  0  0  0  0  0
   -0.9350    5.9750   -1.3570 H   0  0  0  0  0  0  0  0  0  0  0  0
    0.0640    8.0790   -0.0970 H   0  0  0  0  0  0  0  0  0  0  0  0
    1.8190    8.1300    0.0070 H   0  0  0  0  0  0  0  0  0  0  0  0
    1.9900    7.9020   -2.4840 H   0  0  0  0  0  0  0  0  0  0  0  0
    0.2210    7.9140   -2.5990 H   0  0  0  0  0  0  0  0  0  0  0  0
    0.1690   10.2040   -1.5940 H   0  0  0  0  0  0  0  0  0  0  0  0
    1.9360   10.1970   -1.4890 H   0  0  0  0  0  0  0  0  0  0  0  0
  1  2  2  0  0  0  0
  1  3  1  0  0  0  0
  1  4  1  0  0  0  0
  2  5  1  0  0  0  0
  2  6  1  0  0  0  0
  3  7  1  0  0  0  0
  3  8  2  0  0  0  0
  4  9  2  0  0  0  0
  4 24  1  0  0  0  0
  5 25  1  0  0  0  0
  5 10  2  0  0  0  0
  6 12  2  0  0  0  0
  6 11  1  0  0  0  0
  7 13  2  0  0  0  0
  7 14  1  0  0  0  0
  9 10  1  0  0  0  0
  9 26  1  0  0  0  0
 10 27  1  0  0  0  0
 13 28  1  0  0  0  0
 13 15  1  0  0  0  0
 14 16  2  0  0  0  0
 14 29  1  0  0  0  0
 15 30  1  0  0  0  0
 15 17  2  0  0  0  0
 16 17  1  0  0  0  0
 16 31  1  0  0  0  0
 17 18  1  0  0  0  0
 18 32  1  0  0  0  0
 18 33  1  0  0  0  0
 18 19  1  0  0  0  0
 19 20  1  0  0  0  0
 19 34  1  0  0  0  0
 19 35  1  0  0  0  0
 20 36  1  0  0  0  0
 20 37  1  0  0  0  0
 20 21  1  0  0  0  0
 21 22  1  0  0  0  0
 21 23  2  0  0  0  0
M  END
