decoy-351
 OpenBabel06062114513D

 35 37  0  0  0  0  0  0  0  0999 V2000
   -0.0410    1.4420    0.1020 C   0  0  0  0  0  0  0  0  0  0  0  0
    0.0000    0.0620    0.4390 C   0  0  0  0  0  0  0  0  0  0  0  0
    1.1950    2.0580   -0.1310 C   0  0  0  0  0  0  0  0  0  0  0  0
   -1.3030    2.0890    0.0200 C   0  0  0  0  0  0  0  0  0  0  0  0
    1.1990   -0.6190    0.5070 O   0  0  0  0  0  0  0  0  0  0  0  0
   -1.1860   -0.6420    0.7170 C   0  0  0  0  0  0  0  0  0  0  0  0
    2.3440    1.3210   -0.2410 C   0  0  0  0  0  0  0  0  0  0  0  0
    1.2950    3.2760   -0.0590 O   0  0  0  0  0  0  0  0  0  0  0  0
   -2.4830    1.3740    0.3050 C   0  0  0  0  0  0  0  0  0  0  0  0
   -1.4410    3.3920   -0.3400 O   0  0  0  0  0  0  0  0  0  0  0  0
    2.3210    0.0040    0.0700 C   0  0  0  0  0  0  0  0  0  0  0  0
   -2.4290    0.0130    0.6550 C   0  0  0  0  0  0  0  0  0  0  0  0
    3.4820    1.8900   -0.6510 O   0  0  0  0  0  0  0  0  0  0  0  0
    3.4460   -0.7940   -0.0100 C   0  0  0  0  0  0  0  0  0  0  0  0
   -3.5810   -0.6530    0.9210 O   0  0  0  0  0  0  0  0  0  0  0  0
    4.1710   -1.1220    1.1570 C   0  0  0  0  0  0  0  0  0  0  0  0
    3.8760   -1.3040   -1.2550 C   0  0  0  0  0  0  0  0  0  0  0  0
    5.3090   -1.9510    1.0870 C   0  0  0  0  0  0  0  0  0  0  0  0
    5.0220   -2.1160   -1.3320 C   0  0  0  0  0  0  0  0  0  0  0  0
    5.7450   -2.4360   -0.1670 C   0  0  0  0  0  0  0  0  0  0  0  0
    6.0130   -2.2310    2.2270 O   0  0  0  0  0  0  0  0  0  0  0  0
    6.8530   -3.2120   -0.2810 O   0  0  0  0  0  0  0  0  0  0  0  0
    5.5370   -3.4010    2.9140 C   0  0  0  0  0  0  0  0  0  0  0  0
   -1.1430   -1.6330    0.9640 H   0  0  0  0  0  0  0  0  0  0  0  0
   -3.3890    1.8450    0.2500 H   0  0  0  0  0  0  0  0  0  0  0  0
   -0.7110    3.5720   -0.9670 H   0  0  0  0  0  0  0  0  0  0  0  0
    3.2420    2.7750   -0.9970 H   0  0  0  0  0  0  0  0  0  0  0  0
   -3.3150   -1.5710    1.1390 H   0  0  0  0  0  0  0  0  0  0  0  0
    3.8730   -0.7590    2.0670 H   0  0  0  0  0  0  0  0  0  0  0  0
    3.3620   -1.0840   -2.1140 H   0  0  0  0  0  0  0  0  0  0  0  0
    5.3300   -2.4720   -2.2400 H   0  0  0  0  0  0  0  0  0  0  0  0
    7.2320   -3.2790    0.6200 H   0  0  0  0  0  0  0  0  0  0  0  0
    6.1560   -3.5500    3.7990 H   0  0  0  0  0  0  0  0  0  0  0  0
    4.5010   -3.2780    3.2390 H   0  0  0  0  0  0  0  0  0  0  0  0
    5.6190   -4.2930    2.2870 H   0  0  0  0  0  0  0  0  0  0  0  0
  1  2  2  0  0  0  0
  1  3  1  0  0  0  0
  1  4  1  0  0  0  0
  2  5  1  0  0  0  0
  2  6  1  0  0  0  0
  3  8  2  0  0  0  0
  3  7  1  0  0  0  0
  4  9  2  0  0  0  0
  4 10  1  0  0  0  0
  5 11  1  0  0  0  0
  6 24  1  0  0  0  0
  6 12  2  0  0  0  0
  7 11  2  0  0  0  0
  7 13  1  0  0  0  0
  9 12  1  0  0  0  0
  9 25  1  0  0  0  0
 10 26  1  0  0  0  0
 11 14  1  0  0  0  0
 12 15  1  0  0  0  0
 13 27  1  0  0  0  0
 14 16  2  0  0  0  0
 14 17  1  0  0  0  0
 15 28  1  0  0  0  0
 16 29  1  0  0  0  0
 16 18  1  0  0  0  0
 17 19  2  0  0  0  0
 17 30  1  0  0  0  0
 18 21  1  0  0  0  0
 18 20  2  0  0  0  0
 19 20  1  0  0  0  0
 19 31  1  0  0  0  0
 20 22  1  0  0  0  0
 21 23  1  0  0  0  0
 22 32  1  0  0  0  0
 23 34  1  0  0  0  0
 23 33  1  0  0  0  0
 23 35  1  0  0  0  0
M  END
