
  ACD/Labs06062115103D

 45 48  0  0  0  0  0  0  0  0  2 V2000
   17.9973   -8.8351    3.9387 N   0  0  0  0  0  0  0  0  0  0  0  0
   17.7577  -10.2412    3.8900 C   0  0  0  0  0  0  0  0  0  0  0  0
   19.1577   -8.2121    4.2040 C   0  0  0  0  0  0  0  0  0  0  0  0
   17.1594   -8.5510    2.9665 C   0  0  0  0  0  0  0  0  0  0  0  0
   16.7796   -9.9153    2.7191 C   0  0  0  0  0  0  0  0  0  0  0  0
   19.2435  -11.2461    3.5881 S   0  0  0  0  0  0  0  0  0  0  0  0
   20.3299   -8.7467    3.7703 C   0  0  0  0  0  0  0  0  0  0  0  0
   19.0573   -7.0846    4.9956 C   0  0  0  0  0  0  0  0  0  0  0  0
   17.1969   -7.6177    2.1753 O   0  0  0  0  0  0  0  0  0  0  0  0
   17.1232  -10.3860    1.4123 N   0  0  0  0  0  0  0  0  0  0  0  0
   20.2812   -9.9305    2.8976 C   0  0  0  0  0  0  0  0  0  0  0  0
   21.6599   -8.2187    4.1164 C   0  0  0  0  0  0  0  0  0  0  0  0
   18.3497   -7.1238    6.1469 O   0  0  0  0  0  0  0  0  0  0  0  0
   19.3604   -5.8728    4.4799 O   0  5  0  0  0  0  0  0  0  0  0  0
   16.9776  -11.6310    0.9849 C   0  0  0  0  0  0  0  0  0  0  0  0
   22.4237   -7.8026    2.9548 N   0  3  0  0  0  0  0  0  0  0  0  0
   17.4017  -11.9406   -0.3719 C   0  0  0  0  0  0  0  0  0  0  0  0
   16.4962  -12.4888    1.7161 O   0  0  0  0  0  0  0  0  0  0  0  0
   21.9888   -6.7418    2.1990 C   0  0  0  0  0  0  0  0  0  0  0  0
   23.5847   -8.4513    2.6132 C   0  0  0  0  0  0  0  0  0  0  0  0
   17.3406  -13.3719   -0.7528 C   0  0  0  0  0  0  0  0  0  0  0  0
   22.7052   -6.3100    1.0680 C   0  0  0  0  0  0  0  0  0  0  0  0
   24.3359   -8.0564    1.4909 C   0  0  0  0  0  0  0  0  0  0  0  0
   16.4933  -13.8931   -1.7310 C   0  0  0  0  0  0  0  0  0  0  0  0
   18.3878  -14.5617   -0.0400 S   0  0  0  0  0  0  0  0  0  0  0  0
   23.8884   -6.9765    0.7140 C   0  0  0  0  0  0  0  0  0  0  0  0
   16.6630  -15.2579   -1.8949 C   0  0  0  0  0  0  0  0  0  0  0  0
   17.6425  -15.7581   -1.0480 C   0  0  0  0  0  0  0  0  0  0  0  0
   17.2265  -10.5900    4.7812 H   0  0  0  0  0  0  0  0  0  0  0  0
   15.7278  -10.0790    2.9735 H   0  0  0  0  0  0  0  0  0  0  0  0
   17.4954   -9.7405    0.7897 H   0  0  0  0  0  0  0  0  0  0  0  0
   21.2697  -10.3598    2.7253 H   0  0  0  0  0  0  0  0  0  0  0  0
   19.8796   -9.6407    1.9244 H   0  0  0  0  0  0  0  0  0  0  0  0
   21.6146   -7.3691    4.8010 H   0  0  0  0  0  0  0  0  0  0  0  0
   22.1743   -9.0057    4.6771 H   0  0  0  0  0  0  0  0  0  0  0  0
   16.7867  -11.3505   -1.0563 H   0  0  0  0  0  0  0  0  0  0  0  0
   18.4369  -11.6136   -0.4994 H   0  0  0  0  0  0  0  0  0  0  0  0
   21.1294   -6.2444    2.4429 H   0  0  0  0  0  0  0  0  0  0  0  0
   23.9274   -9.2418    3.1662 H   0  0  0  0  0  0  0  0  0  0  0  0
   22.3697   -5.5210    0.5115 H   0  0  0  0  0  0  0  0  0  0  0  0
   25.1975   -8.5489    1.2446 H   0  0  0  0  0  0  0  0  0  0  0  0
   15.8183  -13.3416   -2.2638 H   0  0  0  0  0  0  0  0  0  0  0  0
   24.4222   -6.6767   -0.1045 H   0  0  0  0  0  0  0  0  0  0  0  0
   16.1300  -15.8274   -2.5547 H   0  0  0  0  0  0  0  0  0  0  0  0
   17.8998  -16.7453   -1.0139 H   0  0  0  0  0  0  0  0  0  0  0  0
  1  3  1  0  0  0  0
  1  4  1  0  0  0  0
  1  2  1  0  0  0  0
  2  5  1  0  0  0  0
  2  6  1  0  0  0  0
  2 29  1  0  0  0  0
  3  8  1  0  0  0  0
  3  7  2  0  0  0  0
  4  9  2  0  0  0  0
  4  5  1  0  0  0  0
  5 30  1  0  0  0  0
  5 10  1  0  0  0  0
  6 11  1  0  0  0  0
  7 12  1  0  0  0  0
  7 11  1  0  0  0  0
  8 14  1  0  0  0  0
  8 13  2  0  0  0  0
 10 31  1  0  0  0  0
 10 15  1  0  0  0  0
 11 33  1  0  0  0  0
 11 32  1  0  0  0  0
 12 34  1  0  0  0  0
 12 16  1  0  0  0  0
 12 35  1  0  0  0  0
 15 17  1  0  0  0  0
 15 18  2  0  0  0  0
 16 19  1  0  0  0  0
 16 20  2  0  0  0  0
 17 37  1  0  0  0  0
 17 36  1  0  0  0  0
 17 21  1  0  0  0  0
 19 38  1  0  0  0  0
 19 22  2  0  0  0  0
 20 23  1  0  0  0  0
 20 39  1  0  0  0  0
 21 24  2  0  0  0  0
 21 25  1  0  0  0  0
 22 40  1  0  0  0  0
 22 26  1  0  0  0  0
 23 26  2  0  0  0  0
 23 41  1  0  0  0  0
 24 42  1  0  0  0  0
 24 27  1  0  0  0  0
 25 28  1  0  0  0  0
 26 43  1  0  0  0  0
 27 44  1  0  0  0  0
 27 28  2  0  0  0  0
 28 45  1  0  0  0  0
M  CHG  2  14  -1  16   1
M  END
