decoy-148
 OpenBabel06062114503D

 31 33  0  0  0  0  0  0  0  0999 V2000
   -0.0640   -1.6190    1.1950 C   0  0  0  0  0  0  0  0  0  0  0  0
    1.1450   -0.9120    1.0690 C   0  0  0  0  0  0  0  0  0  0  0  0
   -1.2100   -1.0110    1.6920 C   0  0  0  0  0  0  0  0  0  0  0  0
   -0.2460   -2.8170    0.7580 N   0  0  0  0  0  0  0  0  0  0  0  0
    1.9860   -1.0470   -0.0780 C   0  0  0  0  0  0  0  0  0  0  0  0
    1.5320    0.0020    2.0840 C   0  0  0  0  0  0  0  0  0  0  0  0
   -1.9540   -0.0690    0.9320 C   0  0  0  0  0  0  0  0  0  0  0  0
   -1.6470   -1.3420    2.9980 C   0  0  0  0  0  0  0  0  0  0  0  0
    0.6340   -3.6930    0.1340 C   0  0  0  0  0  0  0  0  0  0  0  0
    1.7810   -1.9220   -1.1120 N   0  0  0  0  0  0  0  0  0  0  0  0
    3.1260   -0.2230   -0.2080 C   0  0  0  0  0  0  0  0  0  0  0  0
    2.6860    0.7960    1.9550 C   0  0  0  0  0  0  0  0  0  0  0  0
   -3.1070    0.5260    1.4870 C   0  0  0  0  0  0  0  0  0  0  0  0
   -1.5210    0.3750   -0.6490 Cl  0  0  0  0  0  0  0  0  0  0  0  0
   -2.7970   -0.7430    3.5410 C   0  0  0  0  0  0  0  0  0  0  0  0
    1.1720   -3.0980   -1.0770 C   0  0  0  0  0  0  0  0  0  0  0  0
    1.6870   -4.0760    1.0170 O   0  0  0  0  0  0  0  0  0  0  0  0
    3.4770    0.6900    0.8000 C   0  0  0  0  0  0  0  0  0  0  0  0
    3.1130    1.8870    3.1770 Cl  0  0  0  0  0  0  0  0  0  0  0  0
   -3.5260    0.1920    2.7860 C   0  0  0  0  0  0  0  0  0  0  0  0
    1.1030   -3.7120   -2.1320 O   0  0  0  0  0  0  0  0  0  0  0  0
    0.9650    0.1050    2.9300 H   0  0  0  0  0  0  0  0  0  0  0  0
   -1.1280   -2.0180    3.5650 H   0  0  0  0  0  0  0  0  0  0  0  0
    0.0730   -4.6000   -0.1040 H   0  0  0  0  0  0  0  0  0  0  0  0
    2.1930   -1.6850   -1.9590 H   0  0  0  0  0  0  0  0  0  0  0  0
    3.7270   -0.2960   -1.0340 H   0  0  0  0  0  0  0  0  0  0  0  0
   -3.6500    1.2050    0.9480 H   0  0  0  0  0  0  0  0  0  0  0  0
   -3.1030   -0.9860    4.4860 H   0  0  0  0  0  0  0  0  0  0  0  0
    2.1650   -3.2490    1.2350 H   0  0  0  0  0  0  0  0  0  0  0  0
    4.3140    1.2670    0.6900 H   0  0  0  0  0  0  0  0  0  0  0  0
   -4.3630    0.6270    3.1820 H   0  0  0  0  0  0  0  0  0  0  0  0
  1  3  1  0  0  0  0
  1  2  1  0  0  0  0
  1  4  2  0  0  0  0
  2  6  2  0  0  0  0
  2  5  1  0  0  0  0
  3  8  2  0  0  0  0
  3  7  1  0  0  0  0
  4  9  1  0  0  0  0
  5 10  1  0  0  0  0
  5 11  2  0  0  0  0
  6 22  1  0  0  0  0
  6 12  1  0  0  0  0
  7 13  2  0  0  0  0
  7 14  1  0  0  0  0
  8 15  1  0  0  0  0
  8 23  1  0  0  0  0
  9 24  1  0  0  0  0
  9 17  1  0  0  0  0
  9 16  1  0  0  0  0
 10 16  1  0  0  0  0
 10 25  1  0  0  0  0
 11 18  1  0  0  0  0
 11 26  1  0  0  0  0
 12 19  1  0  0  0  0
 12 18  2  0  0  0  0
 13 20  1  0  0  0  0
 13 27  1  0  0  0  0
 15 28  1  0  0  0  0
 15 20  2  0  0  0  0
 16 21  2  0  0  0  0
 17 29  1  0  0  0  0
 18 30  1  0  0  0  0
 20 31  1  0  0  0  0
M  END
