
  ACD/Labs06062115053D

 60 60  0  0  0  0  0  0  0  0  2 V2000
   26.0890  -11.9539   -0.1370 N   0  3  0  0  0  0  0  0  0  0  0  0
   26.0910  -13.3089    0.0840 C   0  0  0  0  0  0  0  0  0  0  0  0
   27.2700  -11.3019   -0.3930 C   0  0  0  0  0  0  0  0  0  0  0  0
   24.8390  -11.2249   -0.1030 C   0  0  0  0  0  0  0  0  0  0  0  0
   27.2880  -14.0489    0.0580 C   0  0  0  0  0  0  0  0  0  0  0  0
   28.4920  -11.9979   -0.4290 C   0  0  0  0  0  0  0  0  0  0  0  0
   24.3020  -11.0469    1.3430 C   0  0  0  0  0  0  0  0  0  0  0  0
   28.4960  -13.3829   -0.2010 C   0  0  0  0  0  0  0  0  0  0  0  0
   22.9750  -10.2449    1.3980 C   0  0  0  0  0  0  0  0  0  0  0  0
   22.4420  -10.0719    2.8450 C   0  0  0  0  0  0  0  0  0  0  0  0
   21.1150   -9.2689    2.9000 C   0  0  0  0  0  0  0  0  0  0  0  0
   20.5810   -9.0959    4.3470 C   0  0  0  0  0  0  0  0  0  0  0  0
   19.2540   -8.2939    4.4010 C   0  0  0  0  0  0  0  0  0  0  0  0
   18.7210   -8.1209    5.8480 C   0  0  0  0  0  0  0  0  0  0  0  0
   17.3940   -7.3179    5.9030 C   0  0  0  0  0  0  0  0  0  0  0  0
   16.8600   -7.1449    7.3500 C   0  0  0  0  0  0  0  0  0  0  0  0
   15.5340   -6.3419    7.4050 C   0  0  0  0  0  0  0  0  0  0  0  0
   15.0000   -6.1689    8.8520 C   0  0  0  0  0  0  0  0  0  0  0  0
   13.6730   -5.3659    8.9070 C   0  0  0  0  0  0  0  0  0  0  0  0
   13.1400   -5.1929   10.3530 C   0  0  0  0  0  0  0  0  0  0  0  0
   11.8130   -4.3909   10.4070 C   0  0  0  0  0  0  0  0  0  0  0  0
   11.2790   -4.2169   11.8460 C   0  0  0  0  0  0  0  0  0  0  0  0
   25.2170  -13.8089    0.2690 H   0  0  0  0  0  0  0  0  0  0  0  0
   27.2870  -10.2909   -0.5570 H   0  0  0  0  0  0  0  0  0  0  0  0
   24.9470  -10.2309   -0.5490 H   0  0  0  0  0  0  0  0  0  0  0  0
   24.0950  -11.7519   -0.7080 H   0  0  0  0  0  0  0  0  0  0  0  0
   27.2780  -15.0569    0.2240 H   0  0  0  0  0  0  0  0  0  0  0  0
   29.3660  -11.5019   -0.6180 H   0  0  0  0  0  0  0  0  0  0  0  0
   24.1390  -12.0309    1.7910 H   0  0  0  0  0  0  0  0  0  0  0  0
   25.0600  -10.5269    1.9360 H   0  0  0  0  0  0  0  0  0  0  0  0
   29.3750  -13.9039   -0.2240 H   0  0  0  0  0  0  0  0  0  0  0  0
   23.1370   -9.2569    0.9580 H   0  0  0  0  0  0  0  0  0  0  0  0
   22.2210  -10.7649    0.8000 H   0  0  0  0  0  0  0  0  0  0  0  0
   22.2780  -11.0599    3.2850 H   0  0  0  0  0  0  0  0  0  0  0  0
   23.1970   -9.5529    3.4430 H   0  0  0  0  0  0  0  0  0  0  0  0
   21.2780   -8.2809    2.4600 H   0  0  0  0  0  0  0  0  0  0  0  0
   20.3600   -9.7879    2.3020 H   0  0  0  0  0  0  0  0  0  0  0  0
   20.4180  -10.0839    4.7860 H   0  0  0  0  0  0  0  0  0  0  0  0
   21.3360   -8.5779    4.9440 H   0  0  0  0  0  0  0  0  0  0  0  0
   19.4180   -7.3059    3.9620 H   0  0  0  0  0  0  0  0  0  0  0  0
   18.5000   -8.8119    3.8040 H   0  0  0  0  0  0  0  0  0  0  0  0
   18.5570   -9.1089    6.2880 H   0  0  0  0  0  0  0  0  0  0  0  0
   19.4760   -7.6019    6.4460 H   0  0  0  0  0  0  0  0  0  0  0  0
   17.5570   -6.3299    5.4640 H   0  0  0  0  0  0  0  0  0  0  0  0
   16.6390   -7.8369    5.3050 H   0  0  0  0  0  0  0  0  0  0  0  0
   16.6970   -8.1329    7.7900 H   0  0  0  0  0  0  0  0  0  0  0  0
   17.6150   -6.6259    7.9480 H   0  0  0  0  0  0  0  0  0  0  0  0
   15.6970   -5.3539    6.9650 H   0  0  0  0  0  0  0  0  0  0  0  0
   14.7790   -6.8609    6.8070 H   0  0  0  0  0  0  0  0  0  0  0  0
   14.8370   -7.1569    9.2910 H   0  0  0  0  0  0  0  0  0  0  0  0
   15.7550   -5.6499    9.4500 H   0  0  0  0  0  0  0  0  0  0  0  0
   13.8370   -4.3779    8.4670 H   0  0  0  0  0  0  0  0  0  0  0  0
   12.9180   -5.8849    8.3090 H   0  0  0  0  0  0  0  0  0  0  0  0
   12.9760   -6.1809   10.7930 H   0  0  0  0  0  0  0  0  0  0  0  0
   13.8940   -4.6739   10.9520 H   0  0  0  0  0  0  0  0  0  0  0  0
   11.9700   -3.3999    9.9720 H   0  0  0  0  0  0  0  0  0  0  0  0
   11.0530   -4.9059    9.8140 H   0  0  0  0  0  0  0  0  0  0  0  0
   10.3480   -3.6469   11.8280 H   0  0  0  0  0  0  0  0  0  0  0  0
   11.0840   -5.1899   12.3000 H   0  0  0  0  0  0  0  0  0  0  0  0
   12.0050   -3.6779   12.4590 H   0  0  0  0  0  0  0  0  0  0  0  0
  1  4  1  0  0  0  0
  1  2  2  0  0  0  0
  1  3  1  0  0  0  0
  2 23  1  0  0  0  0
  2  5  1  0  0  0  0
  3  6  2  0  0  0  0
  3 24  1  0  0  0  0
  4  7  1  0  0  0  0
  4 25  1  0  0  0  0
  4 26  1  0  0  0  0
  5 27  1  0  0  0  0
  5  8  2  0  0  0  0
  6  8  1  0  0  0  0
  6 28  1  0  0  0  0
  7  9  1  0  0  0  0
  7 29  1  0  0  0  0
  7 30  1  0  0  0  0
  8 31  1  0  0  0  0
  9 10  1  0  0  0  0
  9 32  1  0  0  0  0
  9 33  1  0  0  0  0
 10 11  1  0  0  0  0
 10 34  1  0  0  0  0
 10 35  1  0  0  0  0
 11 12  1  0  0  0  0
 11 36  1  0  0  0  0
 11 37  1  0  0  0  0
 12 13  1  0  0  0  0
 12 38  1  0  0  0  0
 12 39  1  0  0  0  0
 13 14  1  0  0  0  0
 13 40  1  0  0  0  0
 13 41  1  0  0  0  0
 14 15  1  0  0  0  0
 14 42  1  0  0  0  0
 14 43  1  0  0  0  0
 15 16  1  0  0  0  0
 15 44  1  0  0  0  0
 15 45  1  0  0  0  0
 16 17  1  0  0  0  0
 16 46  1  0  0  0  0
 16 47  1  0  0  0  0
 17 18  1  0  0  0  0
 17 48  1  0  0  0  0
 17 49  1  0  0  0  0
 18 19  1  0  0  0  0
 18 50  1  0  0  0  0
 18 51  1  0  0  0  0
 19 20  1  0  0  0  0
 19 52  1  0  0  0  0
 19 53  1  0  0  0  0
 20 21  1  0  0  0  0
 20 54  1  0  0  0  0
 20 55  1  0  0  0  0
 21 22  1  0  0  0  0
 21 56  1  0  0  0  0
 21 57  1  0  0  0  0
 22 59  1  0  0  0  0
 22 60  1  0  0  0  0
 22 58  1  0  0  0  0
M  CHG  1   1   1
M  END
