decoy-617
 OpenBabel06062114513D

 38 39  0  0  0  0  0  0  0  0999 V2000
   -0.0180    1.4380   -0.0060 C   0  0  0  0  0  0  0  0  0  0  0  0
    0.0470   -0.1270    0.1650 C   0  0  0  0  0  0  0  0  0  0  0  0
    1.4080    1.6710   -0.2140 C   0  0  0  0  0  0  0  0  0  0  0  0
   -0.9160    1.9820   -1.0350 C   0  0  0  0  0  0  0  0  0  0  0  0
    1.1910   -0.5950   -0.7980 C   0  0  0  0  0  0  0  0  0  0  0  0
    0.6150   -0.4200    1.5940 C   0  0  0  0  0  0  0  0  0  0  0  0
    2.1590    0.4120   -0.0960 C   0  0  0  0  0  0  0  0  0  0  0  0
    1.9270    2.7470    0.0530 O   0  0  0  0  0  0  0  0  0  0  0  0
   -1.1730    3.4160   -1.2430 C   0  0  0  0  0  0  0  0  0  0  0  0
   -1.5880    1.2010   -1.6970 O   0  0  0  0  0  0  0  0  0  0  0  0
    1.5500   -2.1290   -0.7090 C   0  0  0  0  0  0  0  0  0  0  0  0
    0.9580   -0.3440   -2.3390 C   0  0  0  0  0  0  0  0  0  0  0  0
    2.1010   -0.0010    1.4170 C   0  0  0  0  0  0  0  0  0  0  0  0
    3.6040    0.4700   -0.6660 C   0  0  0  0  0  0  0  0  0  0  0  0
   -2.6650    3.8370   -0.9830 C   0  0  0  0  0  0  0  0  0  0  0  0
   -0.3560    4.1970   -0.4550 F   0  0  0  0  0  0  0  0  0  0  0  0
   -0.8140    3.7040   -2.5410 F   0  0  0  0  0  0  0  0  0  0  0  0
   -2.9740    5.3610   -1.1300 C   0  0  0  0  0  0  0  0  0  0  0  0
   -3.5020    3.1630   -1.8500 F   0  0  0  0  0  0  0  0  0  0  0  0
   -3.0280    3.4460    0.2890 F   0  0  0  0  0  0  0  0  0  0  0  0
   -2.2910    6.1210   -0.2110 F   0  0  0  0  0  0  0  0  0  0  0  0
   -2.6600    5.8270   -2.3840 F   0  0  0  0  0  0  0  0  0  0  0  0
   -4.3120    5.6110   -0.9300 F   0  0  0  0  0  0  0  0  0  0  0  0
   -0.9080   -0.6330    0.0010 H   0  0  0  0  0  0  0  0  0  0  0  0
   -0.3370    1.9000    0.9350 H   0  0  0  0  0  0  0  0  0  0  0  0
    0.1180    0.1640    2.3730 H   0  0  0  0  0  0  0  0  0  0  0  0
    0.5130   -1.4750    1.8600 H   0  0  0  0  0  0  0  0  0  0  0  0
    0.6990   -2.7270   -1.0420 H   0  0  0  0  0  0  0  0  0  0  0  0
    2.4030   -2.3640   -1.3490 H   0  0  0  0  0  0  0  0  0  0  0  0
    1.8140   -2.4730    0.2870 H   0  0  0  0  0  0  0  0  0  0  0  0
    0.0470   -0.8490   -2.6650 H   0  0  0  0  0  0  0  0  0  0  0  0
    0.8740    0.7090   -2.6000 H   0  0  0  0  0  0  0  0  0  0  0  0
    1.7910   -0.7310   -2.9300 H   0  0  0  0  0  0  0  0  0  0  0  0
    2.3640    0.8280    2.0810 H   0  0  0  0  0  0  0  0  0  0  0  0
    2.7720   -0.8340    1.6380 H   0  0  0  0  0  0  0  0  0  0  0  0
    3.5950    0.7960   -1.7080 H   0  0  0  0  0  0  0  0  0  0  0  0
    4.2110    1.1710   -0.0890 H   0  0  0  0  0  0  0  0  0  0  0  0
    4.0740   -0.5130   -0.6140 H   0  0  0  0  0  0  0  0  0  0  0  0
  1  2  1  0  0  0  0
  1 25  1  0  0  0  0
  1  3  1  0  0  0  0
  1  4  1  0  0  0  0
  2 24  1  0  0  0  0
  2  6  1  0  0  0  0
  2  5  1  0  0  0  0
  3  7  1  0  0  0  0
  3  8  2  0  0  0  0
  4  9  1  0  0  0  0
  4 10  2  0  0  0  0
  5 11  1  0  0  0  0
  5  7  1  0  0  0  0
  5 12  1  0  0  0  0
  6 27  1  0  0  0  0
  6 26  1  0  0  0  0
  6 13  1  0  0  0  0
  7 14  1  0  0  0  0
  7 13  1  0  0  0  0
  9 15  1  0  0  0  0
  9 16  1  0  0  0  0
  9 17  1  0  0  0  0
 11 30  1  0  0  0  0
 11 28  1  0  0  0  0
 11 29  1  0  0  0  0
 12 31  1  0  0  0  0
 12 32  1  0  0  0  0
 12 33  1  0  0  0  0
 13 35  1  0  0  0  0
 13 34  1  0  0  0  0
 14 38  1  0  0  0  0
 14 37  1  0  0  0  0
 14 36  1  0  0  0  0
 15 20  1  0  0  0  0
 15 18  1  0  0  0  0
 15 19  1  0  0  0  0
 18 23  1  0  0  0  0
 18 21  1  0  0  0  0
 18 22  1  0  0  0  0
M  END
