decoy-230
 OpenBabel06062114513D

 52 55  0  0  0  0  0  0  0  0999 V2000
   -0.1890    1.5760   -0.1450 C   0  0  0  0  0  0  0  0  0  0  0  0
   -0.2620    0.0000   -0.2910 C   0  0  0  0  0  0  0  0  0  0  0  0
    1.3040    2.0420   -0.1250 C   0  0  0  0  0  0  0  0  0  0  0  0
   -0.9660    2.0480    1.1210 C   0  0  0  0  0  0  0  0  0  0  0  0
   -1.7580   -0.5520   -0.2220 C   0  0  0  0  0  0  0  0  0  0  0  0
    0.6070   -0.4890   -1.5070 C   0  0  0  0  0  0  0  0  0  0  0  0
    2.0970    1.6560   -1.4170 C   0  0  0  0  0  0  0  0  0  0  0  0
    1.6410    3.5320    0.0880 C   0  0  0  0  0  0  0  0  0  0  0  0
   -2.4100    1.4890    1.1570 C   0  0  0  0  0  0  0  0  0  0  0  0
   -2.3750    0.0270    1.0180 C   0  0  0  0  0  0  0  0  0  0  0  0
   -1.8280   -2.1380   -0.1760 C   0  0  0  0  0  0  0  0  0  0  0  0
   -2.5910   -0.1370   -1.4890 C   0  0  0  0  0  0  0  0  0  0  0  0
    2.0550    0.0920   -1.5240 C   0  0  0  0  0  0  0  0  0  0  0  0
    3.4930    2.3390   -1.1250 C   0  0  0  0  0  0  0  0  0  0  0  0
    1.5030    2.2630   -2.7510 C   0  0  0  0  0  0  0  0  0  0  0  0
    3.1000    3.6780   -0.4140 C   0  0  0  0  0  0  0  0  0  0  0  0
   -2.7110   -0.7300    2.0920 C   0  0  0  0  0  0  0  0  0  0  0  0
   -1.5650   -2.7080    1.2380 C   0  0  0  0  0  0  0  0  0  0  0  0
    4.4980    1.5190   -0.2550 C   0  0  0  0  0  0  0  0  0  0  0  0
    4.2210    2.6360   -2.3240 O   0  0  0  0  0  0  0  0  0  0  0  0
   -2.4790   -2.0660    2.1630 C   0  0  0  0  0  0  0  0  0  0  0  0
   -3.0860   -2.7440    2.9830 O   0  0  0  0  0  0  0  0  0  0  0  0
   -0.6770    2.0490   -0.9950 H   0  0  0  0  0  0  0  0  0  0  0  0
    0.2460   -0.4050    0.5920 H   0  0  0  0  0  0  0  0  0  0  0  0
    1.7520    1.5220    0.7310 H   0  0  0  0  0  0  0  0  0  0  0  0
   -0.4360    1.7260    2.0220 H   0  0  0  0  0  0  0  0  0  0  0  0
   -1.0170    3.1400    1.1370 H   0  0  0  0  0  0  0  0  0  0  0  0
    0.7160   -1.5730   -1.4770 H   0  0  0  0  0  0  0  0  0  0  0  0
    0.1080   -0.2470   -2.4450 H   0  0  0  0  0  0  0  0  0  0  0  0
    0.9640    4.1640   -0.4950 H   0  0  0  0  0  0  0  0  0  0  0  0
    1.5550    3.8120    1.1420 H   0  0  0  0  0  0  0  0  0  0  0  0
   -2.8740    1.8220    2.0910 H   0  0  0  0  0  0  0  0  0  0  0  0
   -3.0010    1.9300    0.3520 H   0  0  0  0  0  0  0  0  0  0  0  0
   -2.8300   -2.4790   -0.4630 H   0  0  0  0  0  0  0  0  0  0  0  0
   -1.1440   -2.6030   -0.8840 H   0  0  0  0  0  0  0  0  0  0  0  0
   -2.5190    0.9240   -1.7150 H   0  0  0  0  0  0  0  0  0  0  0  0
   -2.2530   -0.6810   -2.3740 H   0  0  0  0  0  0  0  0  0  0  0  0
   -3.6500   -0.3680   -1.3440 H   0  0  0  0  0  0  0  0  0  0  0  0
    2.5870   -0.3580   -0.6830 H   0  0  0  0  0  0  0  0  0  0  0  0
    2.5660   -0.2320   -2.4350 H   0  0  0  0  0  0  0  0  0  0  0  0
    1.5230    3.3530   -2.7460 H   0  0  0  0  0  0  0  0  0  0  0  0
    2.0890    1.9290   -3.6090 H   0  0  0  0  0  0  0  0  0  0  0  0
    0.4740    1.9650   -2.9350 H   0  0  0  0  0  0  0  0  0  0  0  0
    3.1560    4.5180   -1.1120 H   0  0  0  0  0  0  0  0  0  0  0  0
    3.7640    3.9090    0.4240 H   0  0  0  0  0  0  0  0  0  0  0  0
   -3.1090   -0.2970    2.8940 H   0  0  0  0  0  0  0  0  0  0  0  0
   -1.7010   -3.7940    1.2310 H   0  0  0  0  0  0  0  0  0  0  0  0
   -0.5360   -2.4990    1.5410 H   0  0  0  0  0  0  0  0  0  0  0  0
    5.4020    2.1040   -0.0700 H   0  0  0  0  0  0  0  0  0  0  0  0
    4.0700    1.2470    0.7100 H   0  0  0  0  0  0  0  0  0  0  0  0
    4.7980    0.6060   -0.7740 H   0  0  0  0  0  0  0  0  0  0  0  0
    4.3930    1.7660   -2.7420 H   0  0  0  0  0  0  0  0  0  0  0  0
  1  2  1  0  0  0  0
  1  3  1  0  0  0  0
  1  4  1  0  0  0  0
  1 23  1  0  0  0  0
  2  5  1  0  0  0  0
  2 24  1  0  0  0  0
  2  6  1  0  0  0  0
  3  7  1  0  0  0  0
  3  8  1  0  0  0  0
  3 25  1  0  0  0  0
  4 27  1  0  0  0  0
  4  9  1  0  0  0  0
  4 26  1  0  0  0  0
  5 12  1  0  0  0  0
  5 11  1  0  0  0  0
  5 10  1  0  0  0  0
  6 28  1  0  0  0  0
  6 13  1  0  0  0  0
  6 29  1  0  0  0  0
  7 14  1  0  0  0  0
  7 13  1  0  0  0  0
  7 15  1  0  0  0  0
  8 31  1  0  0  0  0
  8 16  1  0  0  0  0
  8 30  1  0  0  0  0
  9 32  1  0  0  0  0
  9 10  1  0  0  0  0
  9 33  1  0  0  0  0
 10 17  2  0  0  0  0
 11 18  1  0  0  0  0
 11 34  1  0  0  0  0
 11 35  1  0  0  0  0
 12 38  1  0  0  0  0
 12 36  1  0  0  0  0
 12 37  1  0  0  0  0
 13 39  1  0  0  0  0
 13 40  1  0  0  0  0
 14 20  1  0  0  0  0
 14 16  1  0  0  0  0
 14 19  1  0  0  0  0
 15 41  1  0  0  0  0
 15 42  1  0  0  0  0
 15 43  1  0  0  0  0
 16 45  1  0  0  0  0
 16 44  1  0  0  0  0
 17 21  1  0  0  0  0
 17 46  1  0  0  0  0
 18 48  1  0  0  0  0
 18 21  1  0  0  0  0
 18 47  1  0  0  0  0
 19 49  1  0  0  0  0
 19 50  1  0  0  0  0
 19 51  1  0  0  0  0
 20 52  1  0  0  0  0
 21 22  2  0  0  0  0
M  END
