decoy-906
 OpenBabel06062114513D

 80 84  0  0  0  0  0  0  0  0999 V2000
    1.8250    4.3120    0.5070 C   0  0  0  0  0  0  0  0  0  0  0  0
    1.7330    2.8960   -0.1940 C   0  0  0  0  0  0  0  0  0  0  0  0
    3.2980    4.6010    1.0020 C   0  0  0  0  0  0  0  0  0  0  0  0
    1.3200    5.4250   -0.4830 C   0  0  0  0  0  0  0  0  0  0  0  0
    0.8860    4.4070    1.6830 C   0  0  0  0  0  0  0  0  0  0  0  0
    2.2670    1.8480    0.7330 C   0  0  0  0  0  0  0  0  0  0  0  0
    2.3200    2.8350   -1.6620 C   0  0  0  0  0  0  0  0  0  0  0  0
    4.2640    3.3770    1.0940 C   0  0  0  0  0  0  0  0  0  0  0  0
    1.9560    5.3710   -1.8920 C   0  0  0  0  0  0  0  0  0  0  0  0
    0.8400    5.5280    2.4420 O   0  0  0  0  0  0  0  0  0  0  0  0
   -0.1270    3.5320    1.8850 O   0  0  0  0  0  0  0  0  0  0  0  0
    3.6460    1.9240    1.3100 C   0  0  0  0  0  0  0  0  0  0  0  0
    1.4460    0.8300    1.0870 C   0  0  0  0  0  0  0  0  0  0  0  0
    1.7480    3.9870   -2.5690 C   0  0  0  0  0  0  0  0  0  0  0  0
    2.0660    1.4380   -2.3150 C   0  0  0  0  0  0  0  0  0  0  0  0
    3.6240    1.4610    2.8750 C   0  0  0  0  0  0  0  0  0  0  0  0
    4.5190    0.9580    0.3980 C   0  0  0  0  0  0  0  0  0  0  0  0
    1.6650   -0.1170    2.1670 C   0  0  0  0  0  0  0  0  0  0  0  0
    2.3520    4.0300   -4.0050 C   0  0  0  0  0  0  0  0  0  0  0  0
    3.0140   -0.0080    2.9650 C   0  0  0  0  0  0  0  0  0  0  0  0
    5.0520    1.4120    3.5550 C   0  0  0  0  0  0  0  0  0  0  0  0
    2.7690    2.4810    3.7160 C   0  0  0  0  0  0  0  0  0  0  0  0
    3.0600   -0.7800    4.3730 C   0  0  0  0  0  0  0  0  0  0  0  0
    5.1530    0.6680    4.9180 C   0  0  0  0  0  0  0  0  0  0  0  0
    4.5810   -0.7900    4.8570 C   0  0  0  0  0  0  0  0  0  0  0  0
    2.6450   -2.2870    4.1370 C   0  0  0  0  0  0  0  0  0  0  0  0
    2.0600   -0.1600    5.4290 C   0  0  0  0  0  0  0  0  0  0  0  0
    4.9540   -1.7440    6.0820 C   0  0  0  0  0  0  0  0  0  0  0  0
    2.9440   -3.2550    5.3120 C   0  0  0  0  0  0  0  0  0  0  0  0
    4.4270   -3.1970    5.7550 C   0  0  0  0  0  0  0  0  0  0  0  0
    6.5170   -1.8500    6.2410 C   0  0  0  0  0  0  0  0  0  0  0  0
    4.4070   -1.2540    7.4670 C   0  0  0  0  0  0  0  0  0  0  0  0
    4.5750   -4.1050    6.8500 O   0  0  0  0  0  0  0  0  0  0  0  0
    0.6620    2.7310   -0.3640 H   0  0  0  0  0  0  0  0  0  0  0  0
    3.6960   -0.6080    2.3650 H   0  0  0  0  0  0  0  0  0  0  0  0
    5.1390   -1.2410    4.0280 H   0  0  0  0  0  0  0  0  0  0  0  0
    3.7750    5.3270    0.3380 H   0  0  0  0  0  0  0  0  0  0  0  0
    3.2960    5.1090    1.9680 H   0  0  0  0  0  0  0  0  0  0  0  0
    0.2360    5.3410   -0.6190 H   0  0  0  0  0  0  0  0  0  0  0  0
    1.5130    6.4170   -0.0610 H   0  0  0  0  0  0  0  0  0  0  0  0
    3.3970    2.9860   -1.6210 H   0  0  0  0  0  0  0  0  0  0  0  0
    4.8450    3.4090    0.1680 H   0  0  0  0  0  0  0  0  0  0  0  0
    5.0030    3.5950    1.8620 H   0  0  0  0  0  0  0  0  0  0  0  0
    1.4900    6.1520   -2.5010 H   0  0  0  0  0  0  0  0  0  0  0  0
    3.0230    5.5990   -1.8340 H   0  0  0  0  0  0  0  0  0  0  0  0
    0.5630    0.7460    0.6350 H   0  0  0  0  0  0  0  0  0  0  0  0
    0.6690    3.8350   -2.6820 H   0  0  0  0  0  0  0  0  0  0  0  0
    2.3890    0.6240   -1.6680 H   0  0  0  0  0  0  0  0  0  0  0  0
    1.0030    1.3010   -2.5270 H   0  0  0  0  0  0  0  0  0  0  0  0
    2.6250    1.3350   -3.2460 H   0  0  0  0  0  0  0  0  0  0  0  0
    4.5700    1.3030   -0.6320 H   0  0  0  0  0  0  0  0  0  0  0  0
    5.5510    0.9010    0.7350 H   0  0  0  0  0  0  0  0  0  0  0  0
    4.1250   -0.0540    0.3330 H   0  0  0  0  0  0  0  0  0  0  0  0
    0.8200   -0.0040    2.8430 H   0  0  0  0  0  0  0  0  0  0  0  0
    1.5870   -1.1180    1.7330 H   0  0  0  0  0  0  0  0  0  0  0  0
    2.0470    3.1560   -4.5820 H   0  0  0  0  0  0  0  0  0  0  0  0
    2.0010    4.9100   -4.5470 H   0  0  0  0  0  0  0  0  0  0  0  0
    3.4430    4.0610   -3.9630 H   0  0  0  0  0  0  0  0  0  0  0  0
    5.7630    0.9170    2.8980 H   0  0  0  0  0  0  0  0  0  0  0  0
    5.4340    2.4220    3.7180 H   0  0  0  0  0  0  0  0  0  0  0  0
    1.7160    2.4320    3.4500 H   0  0  0  0  0  0  0  0  0  0  0  0
    2.8360    2.3140    4.7840 H   0  0  0  0  0  0  0  0  0  0  0  0
    3.1130    3.4990    3.5720 H   0  0  0  0  0  0  0  0  0  0  0  0
    6.2130    0.6460    5.1710 H   0  0  0  0  0  0  0  0  0  0  0  0
    4.6680    1.2480    5.7010 H   0  0  0  0  0  0  0  0  0  0  0  0
    1.5750   -2.3500    3.9200 H   0  0  0  0  0  0  0  0  0  0  0  0
    3.1670   -2.6840    3.2610 H   0  0  0  0  0  0  0  0  0  0  0  0
    2.5600    0.5050    6.1280 H   0  0  0  0  0  0  0  0  0  0  0  0
    1.2630    0.4120    4.9640 H   0  0  0  0  0  0  0  0  0  0  0  0
    1.5580   -0.9120    6.0340 H   0  0  0  0  0  0  0  0  0  0  0  0
    2.2940   -3.0460    6.1620 H   0  0  0  0  0  0  0  0  0  0  0  0
    2.7140   -4.2740    4.9860 H   0  0  0  0  0  0  0  0  0  0  0  0
    5.0170   -3.6100    4.9290 H   0  0  0  0  0  0  0  0  0  0  0  0
    6.9480   -0.9190    6.6130 H   0  0  0  0  0  0  0  0  0  0  0  0
    6.7960   -2.6260    6.9560 H   0  0  0  0  0  0  0  0  0  0  0  0
    6.9960   -2.0900    5.2900 H   0  0  0  0  0  0  0  0  0  0  0  0
    3.3270   -1.3430    7.5360 H   0  0  0  0  0  0  0  0  0  0  0  0
    4.8210   -1.8490    8.2840 H   0  0  0  0  0  0  0  0  0  0  0  0
    4.6790   -0.2130    7.6480 H   0  0  0  0  0  0  0  0  0  0  0  0
    5.5400   -4.1980    6.9880 H   0  0  0  0  0  0  0  0  0  0  0  0
  1  2  1  0  0  0  0
  1  3  1  0  0  0  0
  1  5  1  0  0  0  0
  1  4  1  0  0  0  0
  2  7  1  0  0  0  0
  2  6  1  0  0  0  0
  2 34  1  0  0  0  0
  3  8  1  0  0  0  0
  3 38  1  0  0  0  0
  3 37  1  0  0  0  0
  4 40  1  0  0  0  0
  4  9  1  0  0  0  0
  4 39  1  0  0  0  0
  5 11  2  0  0  0  0
  5 10  1  0  0  0  0
  6 13  2  0  0  0  0
  6 12  1  0  0  0  0
  7 14  1  0  0  0  0
  7 41  1  0  0  0  0
  7 15  1  0  0  0  0
  8 12  1  0  0  0  0
  8 43  1  0  0  0  0
  8 42  1  0  0  0  0
  9 45  1  0  0  0  0
  9 14  1  0  0  0  0
  9 44  1  0  0  0  0
 12 16  1  0  0  0  0
 12 17  1  0  0  0  0
 13 18  1  0  0  0  0
 13 46  1  0  0  0  0
 14 47  1  0  0  0  0
 14 19  1  0  0  0  0
 15 48  1  0  0  0  0
 15 49  1  0  0  0  0
 15 50  1  0  0  0  0
 16 20  1  0  0  0  0
 16 21  1  0  0  0  0
 16 22  1  0  0  0  0
 17 52  1  0  0  0  0
 17 51  1  0  0  0  0
 17 53  1  0  0  0  0
 18 54  1  0  0  0  0
 18 20  1  0  0  0  0
 18 55  1  0  0  0  0
 19 58  1  0  0  0  0
 19 56  1  0  0  0  0
 19 57  1  0  0  0  0
 20 23  1  0  0  0  0
 20 35  1  0  0  0  0
 21 60  1  0  0  0  0
 21 24  1  0  0  0  0
 21 59  1  0  0  0  0
 22 62  1  0  0  0  0
 22 61  1  0  0  0  0
 22 63  1  0  0  0  0
 23 25  1  0  0  0  0
 23 27  1  0  0  0  0
 23 26  1  0  0  0  0
 24 64  1  0  0  0  0
 24 65  1  0  0  0  0
 24 25  1  0  0  0  0
 25 36  1  0  0  0  0
 25 28  1  0  0  0  0
 26 29  1  0  0  0  0
 26 66  1  0  0  0  0
 26 67  1  0  0  0  0
 27 70  1  0  0  0  0
 27 68  1  0  0  0  0
 27 69  1  0  0  0  0
 28 31  1  0  0  0  0
 28 32  1  0  0  0  0
 28 30  1  0  0  0  0
 29 30  1  0  0  0  0
 29 71  1  0  0  0  0
 29 72  1  0  0  0  0
 30 73  1  0  0  0  0
 30 33  1  0  0  0  0
 31 74  1  0  0  0  0
 31 75  1  0  0  0  0
 31 76  1  0  0  0  0
 32 77  1  0  0  0  0
 32 79  1  0  0  0  0
 32 78  1  0  0  0  0
 33 80  1  0  0  0  0
M  END
