decoy-931
 OpenBabel06062114513D

 51 54  0  0  0  0  0  0  0  0999 V2000
    0.0870    0.8310    0.0110 C   0  0  0  0  0  0  0  0  0  0  0  0
    0.3200   -0.4410    0.6290 C   0  0  0  0  0  0  0  0  0  0  0  0
    1.1800    1.5880   -0.5010 C   0  0  0  0  0  0  0  0  0  0  0  0
   -1.2390    1.3020   -0.0500 C   0  0  0  0  0  0  0  0  0  0  0  0
   -0.7840   -1.1420    1.1510 C   0  0  0  0  0  0  0  0  0  0  0  0
    1.6480   -0.9390    0.7370 C   0  0  0  0  0  0  0  0  0  0  0  0
    2.4830    1.0500   -0.3930 C   0  0  0  0  0  0  0  0  0  0  0  0
    0.9550    2.8340   -1.0100 N   0  0  0  0  0  0  0  0  0  0  0  0
   -2.1880    0.8100    0.8470 C   0  0  0  0  0  0  0  0  0  0  0  0
   -1.6470    1.8170   -1.0840 O   0  0  0  0  0  0  0  0  0  0  0  0
   -1.9540   -0.4500    1.4650 C   0  0  0  0  0  0  0  0  0  0  0  0
   -0.8640   -2.3530    0.9840 O   0  0  0  0  0  0  0  0  0  0  0  0
    2.7290   -0.1980    0.2050 C   0  0  0  0  0  0  0  0  0  0  0  0
    1.9030   -2.1020    1.3760 N   0  0  0  0  0  0  0  0  0  0  0  0
    1.7890    3.6860   -1.6740 C   0  0  0  0  0  0  0  0  0  0  0  0
   -3.3630    1.5330    1.1610 C   0  0  0  0  0  0  0  0  0  0  0  0
   -2.9000   -0.9590    2.3860 C   0  0  0  0  0  0  0  0  0  0  0  0
    4.3810   -0.7640    0.3050 S   0  0  0  0  0  0  0  0  0  0  0  0
    1.7040    5.0610   -1.3720 C   0  0  0  0  0  0  0  0  0  0  0  0
    2.6430    3.2710   -2.7210 C   0  0  0  0  0  0  0  0  0  0  0  0
   -4.2960    1.0120    2.0750 C   0  0  0  0  0  0  0  0  0  0  0  0
   -4.0650   -0.2320    2.6860 C   0  0  0  0  0  0  0  0  0  0  0  0
    4.4990   -2.2990   -0.3920 O   0  0  0  0  0  0  0  0  0  0  0  0
    5.4900    0.2510   -0.4710 O   0  0  0  0  0  0  0  0  0  0  0  0
    4.8320   -0.9010    1.9280 O   0  0  0  0  0  0  0  0  0  0  0  0
    2.5010    5.9960   -2.0560 C   0  0  0  0  0  0  0  0  0  0  0  0
    3.4410    4.2050   -3.4070 C   0  0  0  0  0  0  0  0  0  0  0  0
    3.3820    5.5770   -3.0780 C   0  0  0  0  0  0  0  0  0  0  0  0
    4.1660    6.4910   -3.7510 N   0  0  0  0  0  0  0  0  0  0  0  0
    3.6130    7.3750   -4.6060 C   0  0  0  0  0  0  0  0  0  0  0  0
    5.5910    6.4510   -3.4980 C   0  0  0  0  0  0  0  0  0  0  0  0
    4.3670    8.3800   -5.3420 C   0  0  0  0  0  0  0  0  0  0  0  0
    2.4040    7.3590   -4.8220 O   0  0  0  0  0  0  0  0  0  0  0  0
    3.2810    1.6010   -0.7080 H   0  0  0  0  0  0  0  0  0  0  0  0
    0.0720    3.1950   -0.8400 H   0  0  0  0  0  0  0  0  0  0  0  0
    1.1830   -2.6120    1.7760 H   0  0  0  0  0  0  0  0  0  0  0  0
    2.8120   -2.4270    1.4560 H   0  0  0  0  0  0  0  0  0  0  0  0
   -3.5450    2.4440    0.7330 H   0  0  0  0  0  0  0  0  0  0  0  0
   -2.7450   -1.8590    2.8480 H   0  0  0  0  0  0  0  0  0  0  0  0
    1.0680    5.3890   -0.6400 H   0  0  0  0  0  0  0  0  0  0  0  0
    2.6750    2.2890   -3.0050 H   0  0  0  0  0  0  0  0  0  0  0  0
   -5.1430    1.5410    2.2980 H   0  0  0  0  0  0  0  0  0  0  0  0
   -4.7440   -0.6070    3.3530 H   0  0  0  0  0  0  0  0  0  0  0  0
    2.4380    6.9870   -1.8070 H   0  0  0  0  0  0  0  0  0  0  0  0
    4.0550    3.8830   -4.1590 H   0  0  0  0  0  0  0  0  0  0  0  0
    5.8770    5.6900   -2.7660 H   0  0  0  0  0  0  0  0  0  0  0  0
    6.1300    6.2330   -4.4220 H   0  0  0  0  0  0  0  0  0  0  0  0
    5.9300    7.4130   -3.1080 H   0  0  0  0  0  0  0  0  0  0  0  0
    3.7240    8.9890   -5.9840 H   0  0  0  0  0  0  0  0  0  0  0  0
    4.8710    9.0500   -4.6440 H   0  0  0  0  0  0  0  0  0  0  0  0
    5.1110    7.8970   -5.9770 H   0  0  0  0  0  0  0  0  0  0  0  0
  1  2  2  0  0  0  0
  1  3  1  0  0  0  0
  1  4  1  0  0  0  0
  2  6  1  0  0  0  0
  2  5  1  0  0  0  0
  3  7  2  0  0  0  0
  3  8  1  0  0  0  0
  4  9  1  0  0  0  0
  4 10  2  0  0  0  0
  5 11  1  0  0  0  0
  5 12  2  0  0  0  0
  6 14  1  0  0  0  0
  6 13  2  0  0  0  0
  7 13  1  0  0  0  0
  7 34  1  0  0  0  0
  8 35  1  0  0  0  0
  8 15  1  0  0  0  0
  9 16  2  0  0  0  0
  9 11  1  0  0  0  0
 11 17  2  0  0  0  0
 13 18  1  0  0  0  0
 14 37  1  0  0  0  0
 14 36  1  0  0  0  0
 15 19  2  0  0  0  0
 15 20  1  0  0  0  0
 16 21  1  0  0  0  0
 16 38  1  0  0  0  0
 17 22  1  0  0  0  0
 17 39  1  0  0  0  0
 18 25  2  0  0  0  0
 18 23  2  0  0  0  0
 18 24  1  0  0  0  0
 19 40  1  0  0  0  0
 19 26  1  0  0  0  0
 20 27  2  0  0  0  0
 20 41  1  0  0  0  0
 21 42  1  0  0  0  0
 21 22  2  0  0  0  0
 22 43  1  0  0  0  0
 26 44  1  0  0  0  0
 26 28  2  0  0  0  0
 27 28  1  0  0  0  0
 27 45  1  0  0  0  0
 28 29  1  0  0  0  0
 29 31  1  0  0  0  0
 29 30  1  0  0  0  0
 30 32  1  0  0  0  0
 30 33  2  0  0  0  0
 31 48  1  0  0  0  0
 31 46  1  0  0  0  0
 31 47  1  0  0  0  0
 32 50  1  0  0  0  0
 32 49  1  0  0  0  0
 32 51  1  0  0  0  0
M  END
