decoy-46
 OpenBabel06062114503D

 52 54  0  0  0  0  0  0  0  0999 V2000
    0.4040    1.7870    0.8450 C   0  0  0  0  0  0  0  0  0  0  0  0
    0.6140    0.1250    1.0970 P   0  0  0  0  0  0  0  0  0  0  0  0
    1.7680    2.5560    0.6010 C   0  0  0  0  0  0  0  0  0  0  0  0
   -0.6340    2.1560   -0.2720 C   0  0  0  0  0  0  0  0  0  0  0  0
   -0.6220   -0.6290    1.8210 C   0  0  0  0  0  0  0  0  0  0  0  0
    0.8030   -0.5830   -0.3410 C   0  0  0  0  0  0  0  0  0  0  0  0
    1.4930    4.0940    0.4590 C   0  0  0  0  0  0  0  0  0  0  0  0
    2.9330    2.2620    1.6340 C   0  0  0  0  0  0  0  0  0  0  0  0
   -0.9050    3.6840   -0.3570 C   0  0  0  0  0  0  0  0  0  0  0  0
   -0.4800   -2.0140    2.0940 C   0  0  0  0  0  0  0  0  0  0  0  0
   -1.8100    0.0110    2.2590 C   0  0  0  0  0  0  0  0  0  0  0  0
    2.1150   -0.9200   -0.7480 C   0  0  0  0  0  0  0  0  0  0  0  0
   -0.2780   -0.9260   -1.1940 C   0  0  0  0  0  0  0  0  0  0  0  0
    0.4290    4.4360   -0.6140 C   0  0  0  0  0  0  0  0  0  0  0  0
    4.3040    2.8720    1.2180 C   0  0  0  0  0  0  0  0  0  0  0  0
    2.6120    2.6310    3.1110 C   0  0  0  0  0  0  0  0  0  0  0  0
   -1.9610    4.0190   -1.4460 C   0  0  0  0  0  0  0  0  0  0  0  0
   -1.5000   -2.7390    2.7370 C   0  0  0  0  0  0  0  0  0  0  0  0
   -2.8300   -0.7140    2.9040 C   0  0  0  0  0  0  0  0  0  0  0  0
    2.3450   -1.5560   -1.9830 C   0  0  0  0  0  0  0  0  0  0  0  0
   -0.0470   -1.5610   -2.4280 C   0  0  0  0  0  0  0  0  0  0  0  0
   -2.6780   -2.0900    3.1390 C   0  0  0  0  0  0  0  0  0  0  0  0
    1.2650   -1.8740   -2.8240 C   0  0  0  0  0  0  0  0  0  0  0  0
    0.0100    2.1790    1.7850 H   0  0  0  0  0  0  0  0  0  0  0  0
    2.1390    2.2200   -0.3740 H   0  0  0  0  0  0  0  0  0  0  0  0
   -0.2610    1.8250   -1.2450 H   0  0  0  0  0  0  0  0  0  0  0  0
   -1.5840    1.6490   -0.0920 H   0  0  0  0  0  0  0  0  0  0  0  0
    1.1540    4.5000    1.4150 H   0  0  0  0  0  0  0  0  0  0  0  0
    2.4080    4.6190    0.1800 H   0  0  0  0  0  0  0  0  0  0  0  0
    3.1090    1.1840    1.6270 H   0  0  0  0  0  0  0  0  0  0  0  0
   -1.3130    4.0180    0.6030 H   0  0  0  0  0  0  0  0  0  0  0  0
    0.3690   -2.5210    1.8230 H   0  0  0  0  0  0  0  0  0  0  0  0
   -1.9580    1.0110    2.1320 H   0  0  0  0  0  0  0  0  0  0  0  0
    2.9240   -0.7080   -0.1570 H   0  0  0  0  0  0  0  0  0  0  0  0
   -1.2430   -0.7220   -0.9270 H   0  0  0  0  0  0  0  0  0  0  0  0
    0.2500    5.5150   -0.6010 H   0  0  0  0  0  0  0  0  0  0  0  0
    0.8210    4.1740   -1.6020 H   0  0  0  0  0  0  0  0  0  0  0  0
    5.1060    2.4430    1.8230 H   0  0  0  0  0  0  0  0  0  0  0  0
    4.5190    2.6520    0.1710 H   0  0  0  0  0  0  0  0  0  0  0  0
    4.3170    3.9540    1.3610 H   0  0  0  0  0  0  0  0  0  0  0  0
    1.7060    2.1280    3.4510 H   0  0  0  0  0  0  0  0  0  0  0  0
    3.4280    2.3160    3.7650 H   0  0  0  0  0  0  0  0  0  0  0  0
    2.4810    3.7070    3.2290 H   0  0  0  0  0  0  0  0  0  0  0  0
   -2.9020    3.5100   -1.2280 H   0  0  0  0  0  0  0  0  0  0  0  0
   -2.1520    5.0930   -1.4690 H   0  0  0  0  0  0  0  0  0  0  0  0
   -1.6130    3.7040   -2.4320 H   0  0  0  0  0  0  0  0  0  0  0  0
   -1.3820   -3.7390    2.9170 H   0  0  0  0  0  0  0  0  0  0  0  0
   -3.6820   -0.2370    3.2080 H   0  0  0  0  0  0  0  0  0  0  0  0
    3.2990   -1.7890   -2.2680 H   0  0  0  0  0  0  0  0  0  0  0  0
   -0.8340   -1.8000   -3.0350 H   0  0  0  0  0  0  0  0  0  0  0  0
   -3.4190   -2.6150    3.6090 H   0  0  0  0  0  0  0  0  0  0  0  0
    1.4330   -2.3370   -3.7200 H   0  0  0  0  0  0  0  0  0  0  0  0
  1  3  1  0  0  0  0
  1  2  1  0  0  0  0
  1 24  1  0  0  0  0
  1  4  1  0  0  0  0
  2  5  1  0  0  0  0
  2  6  1  0  0  0  0
  3 25  1  0  0  0  0
  3  8  1  0  0  0  0
  3  7  1  0  0  0  0
  4 27  1  0  0  0  0
  4  9  1  0  0  0  0
  4 26  1  0  0  0  0
  5 10  2  0  0  0  0
  5 11  1  0  0  0  0
  6 12  2  0  0  0  0
  6 13  1  0  0  0  0
  7 28  1  0  0  0  0
  7 14  1  0  0  0  0
  7 29  1  0  0  0  0
  8 16  1  0  0  0  0
  8 15  1  0  0  0  0
  8 30  1  0  0  0  0
  9 31  1  0  0  0  0
  9 14  1  0  0  0  0
  9 17  1  0  0  0  0
 10 18  1  0  0  0  0
 10 32  1  0  0  0  0
 11 19  2  0  0  0  0
 11 33  1  0  0  0  0
 12 34  1  0  0  0  0
 12 20  1  0  0  0  0
 13 35  1  0  0  0  0
 13 21  2  0  0  0  0
 14 36  1  0  0  0  0
 14 37  1  0  0  0  0
 15 40  1  0  0  0  0
 15 38  1  0  0  0  0
 15 39  1  0  0  0  0
 16 43  1  0  0  0  0
 16 41  1  0  0  0  0
 16 42  1  0  0  0  0
 17 44  1  0  0  0  0
 17 45  1  0  0  0  0
 17 46  1  0  0  0  0
 18 47  1  0  0  0  0
 18 22  2  0  0  0  0
 19 22  1  0  0  0  0
 19 48  1  0  0  0  0
 20 23  2  0  0  0  0
 20 49  1  0  0  0  0
 21 23  1  0  0  0  0
 21 50  1  0  0  0  0
 22 51  1  0  0  0  0
 23 52  1  0  0  0  0
M  END
