decoy-629
 OpenBabel06062114513D

 35 36  0  0  0  0  0  0  0  0999 V2000
    0.9010    0.3550    0.9410 C   0  0  0  0  0  0  0  0  0  0  0  0
    2.1490   -0.2960    0.8010 C   0  0  0  0  0  0  0  0  0  0  0  0
   -0.0690   -0.2090    1.7050 N   0  0  0  0  0  0  0  0  0  0  0  0
    0.6950    1.5340    0.2920 N   0  0  0  0  0  0  0  0  0  0  0  0
    3.1180    0.3030   -0.0340 C   0  0  0  0  0  0  0  0  0  0  0  0
    2.3950   -1.5100    1.3870 O   0  0  0  0  0  0  0  0  0  0  0  0
   -1.6040    0.4490    1.9370 S   0  0  0  0  0  0  0  0  0  0  0  0
    1.6400    2.0980   -0.4990 C   0  0  0  0  0  0  0  0  0  0  0  0
    2.8310    1.4740   -0.6630 N   0  0  0  0  0  0  0  0  0  0  0  0
    4.3110   -0.3280   -0.2590 O   0  0  0  0  0  0  0  0  0  0  0  0
    2.9310   -1.4060    2.7170 C   0  0  0  0  0  0  0  0  0  0  0  0
   -2.4780    0.5550    0.4350 C   0  0  0  0  0  0  0  0  0  0  0  0
   -1.5090    1.8070    2.7600 O   0  0  0  0  0  0  0  0  0  0  0  0
   -2.3800   -0.5890    2.8590 O   0  0  0  0  0  0  0  0  0  0  0  0
    5.4600    0.4100    0.1910 C   0  0  0  0  0  0  0  0  0  0  0  0
   -2.6060   -0.5850   -0.3860 C   0  0  0  0  0  0  0  0  0  0  0  0
   -3.0460    1.7770    0.0180 C   0  0  0  0  0  0  0  0  0  0  0  0
   -3.2970   -0.5050   -1.6090 C   0  0  0  0  0  0  0  0  0  0  0  0
   -3.7380    1.8570   -1.2050 C   0  0  0  0  0  0  0  0  0  0  0  0
   -3.8650    0.7170   -2.0230 C   0  0  0  0  0  0  0  0  0  0  0  0
   -4.5250    0.7940   -3.1920 N   0  0  0  0  0  0  0  0  0  0  0  0
    0.1250   -1.0560    2.1360 H   0  0  0  0  0  0  0  0  0  0  0  0
    1.4500    2.9790   -0.9770 H   0  0  0  0  0  0  0  0  0  0  0  0
    3.8940   -0.8900    2.7190 H   0  0  0  0  0  0  0  0  0  0  0  0
    3.0860   -2.4150    3.0990 H   0  0  0  0  0  0  0  0  0  0  0  0
    2.2410   -0.8900    3.3880 H   0  0  0  0  0  0  0  0  0  0  0  0
    5.5780    1.3390   -0.3700 H   0  0  0  0  0  0  0  0  0  0  0  0
    6.3450   -0.2040    0.0220 H   0  0  0  0  0  0  0  0  0  0  0  0
    5.3980    0.6340    1.2590 H   0  0  0  0  0  0  0  0  0  0  0  0
   -2.1960   -1.4770   -0.1000 H   0  0  0  0  0  0  0  0  0  0  0  0
   -2.9600    2.6140    0.5980 H   0  0  0  0  0  0  0  0  0  0  0  0
   -3.3820   -1.3390   -2.1950 H   0  0  0  0  0  0  0  0  0  0  0  0
   -4.1450    2.7500   -1.4950 H   0  0  0  0  0  0  0  0  0  0  0  0
   -4.9160    1.6350   -3.4760 H   0  0  0  0  0  0  0  0  0  0  0  0
   -4.6130    0.0080   -3.7550 H   0  0  0  0  0  0  0  0  0  0  0  0
  1  3  1  0  0  0  0
  1  2  2  0  0  0  0
  1  4  1  0  0  0  0
  2  6  1  0  0  0  0
  2  5  1  0  0  0  0
  3  7  1  0  0  0  0
  3 22  1  0  0  0  0
  4  8  2  0  0  0  0
  5  9  2  0  0  0  0
  5 10  1  0  0  0  0
  6 11  1  0  0  0  0
  7 13  2  0  0  0  0
  7 14  2  0  0  0  0
  7 12  1  0  0  0  0
  8  9  1  0  0  0  0
  8 23  1  0  0  0  0
 10 15  1  0  0  0  0
 11 24  1  0  0  0  0
 11 25  1  0  0  0  0
 11 26  1  0  0  0  0
 12 16  2  0  0  0  0
 12 17  1  0  0  0  0
 15 29  1  0  0  0  0
 15 27  1  0  0  0  0
 15 28  1  0  0  0  0
 16 30  1  0  0  0  0
 16 18  1  0  0  0  0
 17 31  1  0  0  0  0
 17 19  2  0  0  0  0
 18 20  2  0  0  0  0
 18 32  1  0  0  0  0
 19 20  1  0  0  0  0
 19 33  1  0  0  0  0
 20 21  1  0  0  0  0
 21 34  1  0  0  0  0
 21 35  1  0  0  0  0
M  END
