decoy-691
 OpenBabel06062114513D

 66 68  0  0  0  0  0  0  0  0999 V2000
   -0.1400    1.2910   -0.3570 C   0  0  0  0  0  0  0  0  0  0  0  0
   -0.8860    0.0910    0.3150 C   0  0  0  0  0  0  0  0  0  0  0  0
    1.2410    1.2320    0.0720 O   0  0  0  0  0  0  0  0  0  0  0  0
   -0.7630    2.4950    0.1340 O   0  0  0  0  0  0  0  0  0  0  0  0
   -0.2200    1.2520   -1.9150 C   0  0  0  0  0  0  0  0  0  0  0  0
    0.0110   -0.7920    1.0300 O   0  0  0  0  0  0  0  0  0  0  0  0
   -1.8430    0.7730    1.3060 C   0  0  0  0  0  0  0  0  0  0  0  0
    2.1640    2.3240   -0.1160 C   0  0  0  0  0  0  0  0  0  0  0  0
   -2.0480    2.1580    0.6690 C   0  0  0  0  0  0  0  0  0  0  0  0
   -1.5600    1.2150   -2.3960 O   0  0  0  0  0  0  0  0  0  0  0  0
   -0.2540   -2.2080    0.9790 C   0  0  0  0  0  0  0  0  0  0  0  0
   -3.0730    0.0670    1.4680 O   0  0  0  0  0  0  0  0  0  0  0  0
    1.8400    3.4810    0.6860 O   0  0  0  0  0  0  0  0  0  0  0  0
    3.5930    1.8250    0.2210 C   0  0  0  0  0  0  0  0  0  0  0  0
   -2.5410    3.2340    1.6620 C   0  0  0  0  0  0  0  0  0  0  0  0
   -0.0660   -2.7350   -0.3530 O   0  0  0  0  0  0  0  0  0  0  0  0
    0.6690   -2.9490    1.9810 C   0  0  0  0  0  0  0  0  0  0  0  0
    1.8920    3.2980    2.1200 C   0  0  0  0  0  0  0  0  0  0  0  0
    3.7290    1.5520    1.7420 C   0  0  0  0  0  0  0  0  0  0  0  0
    3.8960    0.6430   -0.5210 O   0  0  0  0  0  0  0  0  0  0  0  0
   -2.6560    4.4930    1.0070 O   0  0  0  0  0  0  0  0  0  0  0  0
    1.2780   -2.6370   -0.8830 C   0  0  0  0  0  0  0  0  0  0  0  0
    2.1470   -2.8960    1.5090 C   0  0  0  0  0  0  0  0  0  0  0  0
    0.5490   -2.3780    3.2840 O   0  0  0  0  0  0  0  0  0  0  0  0
    3.3000    2.7940    2.5650 C   0  0  0  0  0  0  0  0  0  0  0  0
    1.5240    4.6500    2.7780 C   0  0  0  0  0  0  0  0  0  0  0  0
    5.0770    1.2060    2.0610 O   0  0  0  0  0  0  0  0  0  0  0  0
    2.2830   -3.3870    0.0430 C   0  0  0  0  0  0  0  0  0  0  0  0
    1.2580   -3.1990   -2.3250 C   0  0  0  0  0  0  0  0  0  0  0  0
    2.9620   -3.6990    2.3610 O   0  0  0  0  0  0  0  0  0  0  0  0
    3.3080    2.4570    3.9530 O   0  0  0  0  0  0  0  0  0  0  0  0
    0.2590    5.1110    2.3170 O   0  0  0  0  0  0  0  0  0  0  0  0
    3.6290   -3.1840   -0.3900 O   0  0  0  0  0  0  0  0  0  0  0  0
    0.3300   -2.4790   -3.1280 O   0  0  0  0  0  0  0  0  0  0  0  0
   -1.4740   -0.4550   -0.4320 H   0  0  0  0  0  0  0  0  0  0  0  0
    0.2450    2.1420   -2.3400 H   0  0  0  0  0  0  0  0  0  0  0  0
    0.3080    0.3740   -2.2900 H   0  0  0  0  0  0  0  0  0  0  0  0
   -1.3610    0.8780    2.2830 H   0  0  0  0  0  0  0  0  0  0  0  0
    2.1650    2.6360   -1.1620 H   0  0  0  0  0  0  0  0  0  0  0  0
   -2.7720    2.0870   -0.1520 H   0  0  0  0  0  0  0  0  0  0  0  0
   -1.4780    1.1980   -3.3730 H   0  0  0  0  0  0  0  0  0  0  0  0
   -1.2910   -2.3930    1.2740 H   0  0  0  0  0  0  0  0  0  0  0  0
   -2.8200   -0.7930    1.8650 H   0  0  0  0  0  0  0  0  0  0  0  0
    4.3140    2.5950   -0.0690 H   0  0  0  0  0  0  0  0  0  0  0  0
   -3.5190    2.9550    2.0570 H   0  0  0  0  0  0  0  0  0  0  0  0
   -1.8430    3.3340    2.4950 H   0  0  0  0  0  0  0  0  0  0  0  0
    0.3530   -3.9940    2.0430 H   0  0  0  0  0  0  0  0  0  0  0  0
    1.1370    2.5620    2.4180 H   0  0  0  0  0  0  0  0  0  0  0  0
    3.0940    0.7040    2.0150 H   0  0  0  0  0  0  0  0  0  0  0  0
    3.8260    0.9080   -1.4620 H   0  0  0  0  0  0  0  0  0  0  0  0
   -2.9710    5.1100    1.7000 H   0  0  0  0  0  0  0  0  0  0  0  0
    1.5700   -1.5840   -0.9450 H   0  0  0  0  0  0  0  0  0  0  0  0
    2.5100   -1.8660    1.5760 H   0  0  0  0  0  0  0  0  0  0  0  0
   -0.3960   -2.4850    3.5220 H   0  0  0  0  0  0  0  0  0  0  0  0
    4.0350    3.5880    2.4050 H   0  0  0  0  0  0  0  0  0  0  0  0
    1.4730    4.5430    3.8630 H   0  0  0  0  0  0  0  0  0  0  0  0
    2.2730    5.4060    2.5340 H   0  0  0  0  0  0  0  0  0  0  0  0
    5.2590    0.3900    1.5500 H   0  0  0  0  0  0  0  0  0  0  0  0
    2.0720   -4.4600    0.0110 H   0  0  0  0  0  0  0  0  0  0  0  0
    2.2450   -3.1090   -2.7820 H   0  0  0  0  0  0  0  0  0  0  0  0
    0.9690   -4.2520   -2.3160 H   0  0  0  0  0  0  0  0  0  0  0  0
    2.8700   -3.3010    3.2520 H   0  0  0  0  0  0  0  0  0  0  0  0
    3.1270    3.2960    4.4240 H   0  0  0  0  0  0  0  0  0  0  0  0
    0.1130    5.9590    2.7860 H   0  0  0  0  0  0  0  0  0  0  0  0
    3.6790   -3.5960   -1.2780 H   0  0  0  0  0  0  0  0  0  0  0  0
    0.3880   -2.8950   -4.0140 H   0  0  0  0  0  0  0  0  0  0  0  0
  1  3  1  0  0  0  0
  1  4  1  0  0  0  0
  1  2  1  0  0  0  0
  1  5  1  0  0  0  0
  2  6  1  0  0  0  0
  2  7  1  0  0  0  0
  2 35  1  0  0  0  0
  3  8  1  0  0  0  0
  4  9  1  0  0  0  0
  5 10  1  0  0  0  0
  5 36  1  0  0  0  0
  5 37  1  0  0  0  0
  6 11  1  0  0  0  0
  7  9  1  0  0  0  0
  7 12  1  0  0  0  0
  7 38  1  0  0  0  0
  8 14  1  0  0  0  0
  8 13  1  0  0  0  0
  8 39  1  0  0  0  0
  9 40  1  0  0  0  0
  9 15  1  0  0  0  0
 10 41  1  0  0  0  0
 11 42  1  0  0  0  0
 11 17  1  0  0  0  0
 11 16  1  0  0  0  0
 12 43  1  0  0  0  0
 13 18  1  0  0  0  0
 14 19  1  0  0  0  0
 14 20  1  0  0  0  0
 14 44  1  0  0  0  0
 15 45  1  0  0  0  0
 15 46  1  0  0  0  0
 15 21  1  0  0  0  0
 16 22  1  0  0  0  0
 17 23  1  0  0  0  0
 17 47  1  0  0  0  0
 17 24  1  0  0  0  0
 18 48  1  0  0  0  0
 18 25  1  0  0  0  0
 18 26  1  0  0  0  0
 19 49  1  0  0  0  0
 19 27  1  0  0  0  0
 19 25  1  0  0  0  0
 20 50  1  0  0  0  0
 21 51  1  0  0  0  0
 22 28  1  0  0  0  0
 22 29  1  0  0  0  0
 22 52  1  0  0  0  0
 23 28  1  0  0  0  0
 23 53  1  0  0  0  0
 23 30  1  0  0  0  0
 24 54  1  0  0  0  0
 25 55  1  0  0  0  0
 25 31  1  0  0  0  0
 26 56  1  0  0  0  0
 26 32  1  0  0  0  0
 26 57  1  0  0  0  0
 27 58  1  0  0  0  0
 28 59  1  0  0  0  0
 28 33  1  0  0  0  0
 29 61  1  0  0  0  0
 29 34  1  0  0  0  0
 29 60  1  0  0  0  0
 30 62  1  0  0  0  0
 31 63  1  0  0  0  0
 32 64  1  0  0  0  0
 33 65  1  0  0  0  0
 34 66  1  0  0  0  0
M  END
