decoy-616
 OpenBabel06062114513D

 45 48  0  0  0  0  0  0  0  0999 V2000
   -0.0200    1.5020    0.0090 C   0  0  0  0  0  0  0  0  0  0  0  0
   -0.2480    0.0770   -0.4980 C   0  0  0  0  0  0  0  0  0  0  0  0
    1.4350    1.8310    0.3440 C   0  0  0  0  0  0  0  0  0  0  0  0
   -0.5940    2.2940   -1.1670 C   0  0  0  0  0  0  0  0  0  0  0  0
   -0.6750    1.8070    1.3570 C   0  0  0  0  0  0  0  0  0  0  0  0
   -1.5490   -0.5000   -0.4730 C   0  0  0  0  0  0  0  0  0  0  0  0
    0.7660   -0.6780   -1.1520 C   0  0  0  0  0  0  0  0  0  0  0  0
    2.0290    3.0890    0.0430 C   0  0  0  0  0  0  0  0  0  0  0  0
    2.2190    0.9320    1.1210 C   0  0  0  0  0  0  0  0  0  0  0  0
    0.1430    2.4240   -2.3790 C   0  0  0  0  0  0  0  0  0  0  0  0
   -1.9250    2.7980   -1.1800 C   0  0  0  0  0  0  0  0  0  0  0  0
   -0.8940    3.1530    1.7660 C   0  0  0  0  0  0  0  0  0  0  0  0
   -0.9510    0.8000    2.3240 C   0  0  0  0  0  0  0  0  0  0  0  0
   -1.8050   -1.7840   -0.9880 C   0  0  0  0  0  0  0  0  0  0  0  0
    0.5180   -1.9630   -1.6690 C   0  0  0  0  0  0  0  0  0  0  0  0
    3.3500    3.3950    0.4180 C   0  0  0  0  0  0  0  0  0  0  0  0
    3.5400    1.2310    1.4990 C   0  0  0  0  0  0  0  0  0  0  0  0
   -0.3810    3.0910   -3.5010 C   0  0  0  0  0  0  0  0  0  0  0  0
   -2.4550    3.4670   -2.2980 C   0  0  0  0  0  0  0  0  0  0  0  0
   -1.4360    3.4700    3.0250 C   0  0  0  0  0  0  0  0  0  0  0  0
   -1.4940    1.1090    3.5840 C   0  0  0  0  0  0  0  0  0  0  0  0
   -0.7670   -2.5200   -1.5790 C   0  0  0  0  0  0  0  0  0  0  0  0
    4.1100    2.4610    1.1390 C   0  0  0  0  0  0  0  0  0  0  0  0
   -1.6790    3.6220   -3.4570 C   0  0  0  0  0  0  0  0  0  0  0  0
   -1.7450    2.4450    3.9320 C   0  0  0  0  0  0  0  0  0  0  0  0
   -2.3340    0.0190   -0.0730 H   0  0  0  0  0  0  0  0  0  0  0  0
    1.7020   -0.2920   -1.2810 H   0  0  0  0  0  0  0  0  0  0  0  0
    1.4970    3.8150   -0.4390 H   0  0  0  0  0  0  0  0  0  0  0  0
    1.8280    0.0370    1.4230 H   0  0  0  0  0  0  0  0  0  0  0  0
    1.0820    2.0270   -2.4550 H   0  0  0  0  0  0  0  0  0  0  0  0
   -2.5390    2.6660   -0.3750 H   0  0  0  0  0  0  0  0  0  0  0  0
   -0.6560    3.9260    1.1410 H   0  0  0  0  0  0  0  0  0  0  0  0
   -0.7400   -0.1800    2.1300 H   0  0  0  0  0  0  0  0  0  0  0  0
   -2.7470   -2.1770   -0.9420 H   0  0  0  0  0  0  0  0  0  0  0  0
    1.2700   -2.4850   -2.1250 H   0  0  0  0  0  0  0  0  0  0  0  0
    3.7530    4.3040    0.1790 H   0  0  0  0  0  0  0  0  0  0  0  0
    4.0830    0.5570    2.0450 H   0  0  0  0  0  0  0  0  0  0  0  0
    0.1790    3.1810   -4.3520 H   0  0  0  0  0  0  0  0  0  0  0  0
   -3.4120    3.8270   -2.2730 H   0  0  0  0  0  0  0  0  0  0  0  0
   -1.5950    4.4470    3.2830 H   0  0  0  0  0  0  0  0  0  0  0  0
   -1.6910    0.3620    4.2540 H   0  0  0  0  0  0  0  0  0  0  0  0
   -0.9500   -3.4520   -1.9590 H   0  0  0  0  0  0  0  0  0  0  0  0
    5.0680    2.6850    1.4170 H   0  0  0  0  0  0  0  0  0  0  0  0
   -2.0650    4.1030   -4.2730 H   0  0  0  0  0  0  0  0  0  0  0  0
   -2.1340    2.6720    4.8500 H   0  0  0  0  0  0  0  0  0  0  0  0
  1  3  1  0  0  0  0
  1  5  1  0  0  0  0
  1  2  1  0  0  0  0
  1  4  1  0  0  0  0
  2  6  2  0  0  0  0
  2  7  1  0  0  0  0
  3  9  2  0  0  0  0
  3  8  1  0  0  0  0
  4 10  2  0  0  0  0
  4 11  1  0  0  0  0
  5 12  2  0  0  0  0
  5 13  1  0  0  0  0
  6 26  1  0  0  0  0
  6 14  1  0  0  0  0
  7 15  2  0  0  0  0
  7 27  1  0  0  0  0
  8 16  2  0  0  0  0
  8 28  1  0  0  0  0
  9 29  1  0  0  0  0
  9 17  1  0  0  0  0
 10 18  1  0  0  0  0
 10 30  1  0  0  0  0
 11 31  1  0  0  0  0
 11 19  2  0  0  0  0
 12 20  1  0  0  0  0
 12 32  1  0  0  0  0
 13 21  2  0  0  0  0
 13 33  1  0  0  0  0
 14 34  1  0  0  0  0
 14 22  2  0  0  0  0
 15 22  1  0  0  0  0
 15 35  1  0  0  0  0
 16 23  1  0  0  0  0
 16 36  1  0  0  0  0
 17 37  1  0  0  0  0
 17 23  2  0  0  0  0
 18 24  2  0  0  0  0
 18 38  1  0  0  0  0
 19 39  1  0  0  0  0
 19 24  1  0  0  0  0
 20 40  1  0  0  0  0
 20 25  2  0  0  0  0
 21 25  1  0  0  0  0
 21 41  1  0  0  0  0
 22 42  1  0  0  0  0
 23 43  1  0  0  0  0
 24 44  1  0  0  0  0
 25 45  1  0  0  0  0
M  END
