decoy-900
 OpenBabel06062114513D

 62 66  0  0  0  0  0  0  0  0999 V2000
   -2.6890   -0.2220    1.3670 C   0  0  0  0  0  0  0  0  0  0  0  0
   -1.3540   -1.0550    1.5460 C   0  0  0  0  0  0  0  0  0  0  0  0
   -2.3980    1.0950    2.1530 C   0  0  0  0  0  0  0  0  0  0  0  0
   -2.8210    0.2680    0.0220 O   0  0  0  0  0  0  0  0  0  0  0  0
   -3.9510   -0.9190    1.6990 C   0  0  0  0  0  0  0  0  0  0  0  0
   -0.2860    0.0850    1.4710 C   0  0  0  0  0  0  0  0  0  0  0  0
   -0.9940   -2.0650    0.3970 C   0  0  0  0  0  0  0  0  0  0  0  0
   -1.4050   -1.8050    2.9350 C   0  0  0  0  0  0  0  0  0  0  0  0
   -0.8640    1.1940    2.3710 C   0  0  0  0  0  0  0  0  0  0  0  0
   -2.8940    2.1770    1.3630 O   0  0  0  0  0  0  0  0  0  0  0  0
   -3.2010    1.6530    0.0660 C   0  0  0  0  0  0  0  0  0  0  0  0
   -4.4740   -2.0160    0.8970 C   0  0  0  0  0  0  0  0  0  0  0  0
   -4.6300   -0.5360    2.6440 O   0  0  0  0  0  0  0  0  0  0  0  0
    1.1930   -0.3910    1.6550 C   0  0  0  0  0  0  0  0  0  0  0  0
    0.4860   -2.5720    0.4020 C   0  0  0  0  0  0  0  0  0  0  0  0
   -4.7210    1.8060   -0.2030 C   0  0  0  0  0  0  0  0  0  0  0  0
   -2.3800    2.4260   -0.9960 C   0  0  0  0  0  0  0  0  0  0  0  0
   -5.8280   -2.3500    1.1970 O   0  0  0  0  0  0  0  0  0  0  0  0
    1.5620   -1.4240    0.5180 C   0  0  0  0  0  0  0  0  0  0  0  0
    2.1810    0.8160    1.6350 C   0  0  0  0  0  0  0  0  0  0  0  0
    0.6490   -3.5950    1.3790 O   0  0  0  0  0  0  0  0  0  0  0  0
    3.0950   -1.8600    0.5480 C   0  0  0  0  0  0  0  0  0  0  0  0
    3.6610    0.3660    1.6640 C   0  0  0  0  0  0  0  0  0  0  0  0
    3.9180   -0.6060    0.5950 C   0  0  0  0  0  0  0  0  0  0  0  0
    3.4010   -2.6690   -0.6580 C   0  0  0  0  0  0  0  0  0  0  0  0
    3.5000   -2.7540    1.7730 C   0  0  0  0  0  0  0  0  0  0  0  0
    4.8320   -0.3300   -0.3640 C   0  0  0  0  0  0  0  0  0  0  0  0
    4.3260   -2.3120   -1.5650 C   0  0  0  0  0  0  0  0  0  0  0  0
    5.0410   -1.1670   -1.4170 C   0  0  0  0  0  0  0  0  0  0  0  0
    5.8840   -0.8790   -2.2570 O   0  0  0  0  0  0  0  0  0  0  0  0
   -2.8880    1.1350    3.1290 H   0  0  0  0  0  0  0  0  0  0  0  0
   -0.3090    0.5100    0.4590 H   0  0  0  0  0  0  0  0  0  0  0  0
    1.2950   -0.8670    2.6310 H   0  0  0  0  0  0  0  0  0  0  0  0
    0.6260   -3.0760   -0.5570 H   0  0  0  0  0  0  0  0  0  0  0  0
    1.4490   -0.8670   -0.4220 H   0  0  0  0  0  0  0  0  0  0  0  0
   -1.6530   -2.9330    0.4340 H   0  0  0  0  0  0  0  0  0  0  0  0
   -1.1710   -1.5850   -0.5700 H   0  0  0  0  0  0  0  0  0  0  0  0
   -1.7880   -1.1610    3.7280 H   0  0  0  0  0  0  0  0  0  0  0  0
   -0.4340   -2.1570    3.2660 H   0  0  0  0  0  0  0  0  0  0  0  0
   -2.0630   -2.6730    2.8750 H   0  0  0  0  0  0  0  0  0  0  0  0
   -0.4800    2.1790    2.0930 H   0  0  0  0  0  0  0  0  0  0  0  0
   -0.6060    1.0030    3.4170 H   0  0  0  0  0  0  0  0  0  0  0  0
   -4.4350   -1.7590   -0.1620 H   0  0  0  0  0  0  0  0  0  0  0  0
   -3.8760   -2.9110    1.0620 H   0  0  0  0  0  0  0  0  0  0  0  0
   -4.9820    1.3630   -1.1660 H   0  0  0  0  0  0  0  0  0  0  0  0
   -5.0030    2.8610   -0.2130 H   0  0  0  0  0  0  0  0  0  0  0  0
   -5.3020    1.3080    0.5740 H   0  0  0  0  0  0  0  0  0  0  0  0
   -1.3120    2.3410   -0.7890 H   0  0  0  0  0  0  0  0  0  0  0  0
   -2.6450    3.4850   -0.9890 H   0  0  0  0  0  0  0  0  0  0  0  0
   -2.5710    2.0230   -1.9930 H   0  0  0  0  0  0  0  0  0  0  0  0
   -5.8180   -2.6390    2.1340 H   0  0  0  0  0  0  0  0  0  0  0  0
    2.0140    1.4180    0.7360 H   0  0  0  0  0  0  0  0  0  0  0  0
    1.9990    1.4560    2.5030 H   0  0  0  0  0  0  0  0  0  0  0  0
    0.8110   -3.1310    2.2230 H   0  0  0  0  0  0  0  0  0  0  0  0
    4.2870    1.2600    1.5810 H   0  0  0  0  0  0  0  0  0  0  0  0
    3.8880   -0.0830    2.6330 H   0  0  0  0  0  0  0  0  0  0  0  0
    2.9310   -3.5350   -0.7950 H   0  0  0  0  0  0  0  0  0  0  0  0
    3.1400   -2.3410    2.7140 H   0  0  0  0  0  0  0  0  0  0  0  0
    4.5880   -2.8410    1.8420 H   0  0  0  0  0  0  0  0  0  0  0  0
    3.1070   -3.7690    1.6920 H   0  0  0  0  0  0  0  0  0  0  0  0
    5.3590    0.5140   -0.3200 H   0  0  0  0  0  0  0  0  0  0  0  0
    4.4950   -2.9070   -2.3450 H   0  0  0  0  0  0  0  0  0  0  0  0
  1  2  1  0  0  0  0
  1  5  1  0  0  0  0
  1  3  1  0  0  0  0
  1  4  1  0  0  0  0
  2  6  1  0  0  0  0
  2  8  1  0  0  0  0
  2  7  1  0  0  0  0
  3  9  1  0  0  0  0
  3 31  1  0  0  0  0
  3 10  1  0  0  0  0
  4 11  1  0  0  0  0
  5 13  2  0  0  0  0
  5 12  1  0  0  0  0
  6 14  1  0  0  0  0
  6  9  1  0  0  0  0
  6 32  1  0  0  0  0
  7 15  1  0  0  0  0
  7 36  1  0  0  0  0
  7 37  1  0  0  0  0
  8 39  1  0  0  0  0
  8 38  1  0  0  0  0
  8 40  1  0  0  0  0
  9 42  1  0  0  0  0
  9 41  1  0  0  0  0
 10 11  1  0  0  0  0
 11 16  1  0  0  0  0
 11 17  1  0  0  0  0
 12 44  1  0  0  0  0
 12 18  1  0  0  0  0
 12 43  1  0  0  0  0
 14 19  1  0  0  0  0
 14 33  1  0  0  0  0
 14 20  1  0  0  0  0
 15 19  1  0  0  0  0
 15 21  1  0  0  0  0
 15 34  1  0  0  0  0
 16 47  1  0  0  0  0
 16 45  1  0  0  0  0
 16 46  1  0  0  0  0
 17 49  1  0  0  0  0
 17 48  1  0  0  0  0
 17 50  1  0  0  0  0
 18 51  1  0  0  0  0
 19 22  1  0  0  0  0
 19 35  1  0  0  0  0
 20 23  1  0  0  0  0
 20 53  1  0  0  0  0
 20 52  1  0  0  0  0
 21 54  1  0  0  0  0
 22 24  1  0  0  0  0
 22 26  1  0  0  0  0
 22 25  1  0  0  0  0
 23 56  1  0  0  0  0
 23 24  1  0  0  0  0
 23 55  1  0  0  0  0
 24 27  2  0  0  0  0
 25 28  2  0  0  0  0
 25 57  1  0  0  0  0
 26 59  1  0  0  0  0
 26 58  1  0  0  0  0
 26 60  1  0  0  0  0
 27 61  1  0  0  0  0
 27 29  1  0  0  0  0
 28 29  1  0  0  0  0
 28 62  1  0  0  0  0
 29 30  2  0  0  0  0
M  END
