decoy-945
 OpenBabel06062114513D

 52 54  0  0  0  0  0  0  0  0999 V2000
    0.1950    1.6150    0.0610 C   0  0  0  0  0  0  0  0  0  0  0  0
    0.1350    0.2260   -0.0710 C   0  0  0  0  0  0  0  0  0  0  0  0
    1.3650    2.3200    0.0370 C   0  0  0  0  0  0  0  0  0  0  0  0
   -1.0570    2.2120    0.2190 C   0  0  0  0  0  0  0  0  0  0  0  0
    0.2310   -0.6040    1.0650 C   0  0  0  0  0  0  0  0  0  0  0  0
    0.0030   -0.3680   -1.3440 C   0  0  0  0  0  0  0  0  0  0  0  0
    2.6050    1.6970   -0.1230 C   0  0  0  0  0  0  0  0  0  0  0  0
    1.3950    3.7060    0.1740 C   0  0  0  0  0  0  0  0  0  0  0  0
   -1.7880    2.6550   -0.9070 C   0  0  0  0  0  0  0  0  0  0  0  0
   -1.6050    2.3950    1.5070 C   0  0  0  0  0  0  0  0  0  0  0  0
    0.1880   -2.0080    0.9440 C   0  0  0  0  0  0  0  0  0  0  0  0
   -0.0430   -1.7730   -1.4950 C   0  0  0  0  0  0  0  0  0  0  0  0
    3.7720    2.3830   -0.1360 C   0  0  0  0  0  0  0  0  0  0  0  0
    2.5490    4.4020    0.1610 C   0  0  0  0  0  0  0  0  0  0  0  0
   -3.0530    3.2640   -0.7590 C   0  0  0  0  0  0  0  0  0  0  0  0
   -2.8630    3.0010    1.6650 C   0  0  0  0  0  0  0  0  0  0  0  0
    0.0490   -2.5940   -0.3400 C   0  0  0  0  0  0  0  0  0  0  0  0
    0.3140   -2.9760    2.3930 S   0  0  0  0  0  0  0  0  0  0  0  0
   -0.1850   -2.3610   -2.8530 C   0  0  0  0  0  0  0  0  0  0  0  0
    3.7470    3.7570    0.0100 C   0  0  0  0  0  0  0  0  0  0  0  0
    5.2480    1.5210   -0.3400 S   0  0  0  0  0  0  0  0  0  0  0  0
   -3.5920    3.4360    0.5400 C   0  0  0  0  0  0  0  0  0  0  0  0
   -3.9170    3.7910   -2.1810 S   0  0  0  0  0  0  0  0  0  0  0  0
    0.0070   -3.9370   -0.4660 N   0  0  0  0  0  0  0  0  0  0  0  0
   -1.0600   -3.9490    2.5430 O   0  0  0  0  0  0  0  0  0  0  0  0
    1.6560   -3.9970    2.2740 O   0  0  0  0  0  0  0  0  0  0  0  0
    0.4700   -2.0560    3.8040 O   0  0  0  0  0  0  0  0  0  0  0  0
    4.8110    4.4710    0.0130 N   0  0  0  0  0  0  0  0  0  0  0  0
    6.1200    2.1050   -1.6650 O   0  0  0  0  0  0  0  0  0  0  0  0
    6.2210    1.7950    1.0150 O   0  0  0  0  0  0  0  0  0  0  0  0
    5.1040   -0.1590   -0.4720 O   0  0  0  0  0  0  0  0  0  0  0  0
   -4.7930    4.0110    0.7460 N   0  0  0  0  0  0  0  0  0  0  0  0
   -5.4150    3.0110   -2.2520 O   0  0  0  0  0  0  0  0  0  0  0  0
   -4.2060    5.4530   -2.0810 O   0  0  0  0  0  0  0  0  0  0  0  0
   -3.0840    3.4790   -3.6200 O   0  0  0  0  0  0  0  0  0  0  0  0
    0.3390   -0.1760    1.9880 H   0  0  0  0  0  0  0  0  0  0  0  0
   -0.0550    0.2330   -2.1710 H   0  0  0  0  0  0  0  0  0  0  0  0
    2.6480    0.7110   -0.2330 H   0  0  0  0  0  0  0  0  0  0  0  0
    0.5560    4.2280    0.2860 H   0  0  0  0  0  0  0  0  0  0  0  0
   -1.3910    2.5330   -1.8410 H   0  0  0  0  0  0  0  0  0  0  0  0
   -1.0920    2.0910    2.3390 H   0  0  0  0  0  0  0  0  0  0  0  0
    2.5180    5.3930    0.2620 H   0  0  0  0  0  0  0  0  0  0  0  0
   -3.2430    3.1230    2.6070 H   0  0  0  0  0  0  0  0  0  0  0  0
   -0.2430   -1.6020   -3.6360 H   0  0  0  0  0  0  0  0  0  0  0  0
    0.6740   -3.0000   -3.0680 H   0  0  0  0  0  0  0  0  0  0  0  0
   -1.0950   -2.9620   -2.9000 H   0  0  0  0  0  0  0  0  0  0  0  0
    0.0710   -4.5050    0.3170 H   0  0  0  0  0  0  0  0  0  0  0  0
   -0.0870   -4.3430   -1.3410 H   0  0  0  0  0  0  0  0  0  0  0  0
    5.6540    4.0800   -0.0850 H   0  0  0  0  0  0  0  0  0  0  0  0
    6.9340    2.6320   -1.5230 H   0  0  0  0  0  0  0  0  0  0  0  0
   -5.3220    4.3230   -0.0040 H   0  0  0  0  0  0  0  0  0  0  0  0
   -5.1340    4.1150    1.6490 H   0  0  0  0  0  0  0  0  0  0  0  0
  1  2  1  0  0  0  0
  1  4  1  0  0  0  0
  1  3  1  0  0  0  0
  2  5  2  0  0  0  0
  2  6  1  0  0  0  0
  3  8  2  0  0  0  0
  3  7  1  0  0  0  0
  4 10  2  0  0  0  0
  4  9  1  0  0  0  0
  5 36  1  0  0  0  0
  5 11  1  0  0  0  0
  6 12  2  0  0  0  0
  6 37  1  0  0  0  0
  7 13  2  0  0  0  0
  7 38  1  0  0  0  0
  8 39  1  0  0  0  0
  8 14  1  0  0  0  0
  9 15  2  0  0  0  0
  9 40  1  0  0  0  0
 10 16  1  0  0  0  0
 10 41  1  0  0  0  0
 11 18  1  0  0  0  0
 11 17  2  0  0  0  0
 12 17  1  0  0  0  0
 12 19  1  0  0  0  0
 13 20  1  0  0  0  0
 13 21  1  0  0  0  0
 14 42  1  0  0  0  0
 14 20  2  0  0  0  0
 15 22  1  0  0  0  0
 15 23  1  0  0  0  0
 16 43  1  0  0  0  0
 16 22  2  0  0  0  0
 17 24  1  0  0  0  0
 18 25  2  0  0  0  0
 18 27  2  0  0  0  0
 18 26  1  0  0  0  0
 19 44  1  0  0  0  0
 19 45  1  0  0  0  0
 19 46  1  0  0  0  0
 20 28  1  0  0  0  0
 21 30  2  0  0  0  0
 21 29  1  0  0  0  0
 21 31  2  0  0  0  0
 22 32  1  0  0  0  0
 23 34  2  0  0  0  0
 23 33  2  0  0  0  0
 23 35  1  0  0  0  0
 24 47  1  0  0  0  0
 24 48  1  0  0  0  0
 28 49  1  0  0  0  0
 29 50  1  0  0  0  0
 32 52  1  0  0  0  0
 32 51  1  0  0  0  0
M  END
