decoy-537
 OpenBabel06062114513D

 41 45  0  0  0  0  0  0  0  0999 V2000
   -0.0230    1.5250    0.0600 C   0  0  0  0  0  0  0  0  0  0  0  0
    0.0090    0.1050   -0.0050 C   0  0  0  0  0  0  0  0  0  0  0  0
    1.1640    2.2010    0.0340 C   0  0  0  0  0  0  0  0  0  0  0  0
   -1.3170    2.1170    0.1000 C   0  0  0  0  0  0  0  0  0  0  0  0
   -1.1290   -0.6320   -0.4380 C   0  0  0  0  0  0  0  0  0  0  0  0
    1.2220   -0.5750    0.2870 C   0  0  0  0  0  0  0  0  0  0  0  0
    1.2560    3.5400   -0.3690 C   0  0  0  0  0  0  0  0  0  0  0  0
    2.3370    1.5120    0.2970 C   0  0  0  0  0  0  0  0  0  0  0  0
   -2.4300    1.3930   -0.4300 C   0  0  0  0  0  0  0  0  0  0  0  0
   -1.5870    3.3430    0.7620 C   0  0  0  0  0  0  0  0  0  0  0  0
   -2.2390    0.0880   -0.8810 C   0  0  0  0  0  0  0  0  0  0  0  0
   -1.0840   -2.0470   -0.4140 C   0  0  0  0  0  0  0  0  0  0  0  0
    2.3380    0.1960    0.4690 N   0  0  0  0  0  0  0  0  0  0  0  0
    1.2690   -1.9920    0.2990 C   0  0  0  0  0  0  0  0  0  0  0  0
    1.6960    4.5470    0.5250 C   0  0  0  0  0  0  0  0  0  0  0  0
    0.9240    3.9060   -1.6960 C   0  0  0  0  0  0  0  0  0  0  0  0
    3.4240    2.0630    0.4140 O   0  0  0  0  0  0  0  0  0  0  0  0
   -3.7280    1.9560   -0.4000 C   0  0  0  0  0  0  0  0  0  0  0  0
   -2.8780    3.8970    0.7850 C   0  0  0  0  0  0  0  0  0  0  0  0
   -2.8300   -0.2770   -1.8900 O   0  0  0  0  0  0  0  0  0  0  0  0
    0.0980   -2.7070   -0.0340 C   0  0  0  0  0  0  0  0  0  0  0  0
   -2.5560   -3.1170   -0.8350 Br  0  0  0  0  0  0  0  0  0  0  0  0
    2.4850   -2.7780    0.6320 C   0  0  0  0  0  0  0  0  0  0  0  0
    1.7850    5.8870    0.1060 C   0  0  0  0  0  0  0  0  0  0  0  0
    1.0130    5.2470   -2.1130 C   0  0  0  0  0  0  0  0  0  0  0  0
   -3.9460    3.2120    0.1870 C   0  0  0  0  0  0  0  0  0  0  0  0
    1.4420    6.2380   -1.2120 C   0  0  0  0  0  0  0  0  0  0  0  0
   -0.8520    3.8420    1.2620 H   0  0  0  0  0  0  0  0  0  0  0  0
    3.1830   -0.2360    0.6600 H   0  0  0  0  0  0  0  0  0  0  0  0
    1.9430    4.3120    1.4900 H   0  0  0  0  0  0  0  0  0  0  0  0
    0.6120    3.1990   -2.3670 H   0  0  0  0  0  0  0  0  0  0  0  0
   -4.5310    1.4440   -0.7770 H   0  0  0  0  0  0  0  0  0  0  0  0
   -3.0440    4.7910    1.2540 H   0  0  0  0  0  0  0  0  0  0  0  0
    0.1070   -3.7300   -0.0230 H   0  0  0  0  0  0  0  0  0  0  0  0
    3.3380   -2.1580    0.9040 H   0  0  0  0  0  0  0  0  0  0  0  0
    2.2740   -3.4390    1.4750 H   0  0  0  0  0  0  0  0  0  0  0  0
    2.7730   -3.3870   -0.2270 H   0  0  0  0  0  0  0  0  0  0  0  0
    2.0980    6.6080    0.7610 H   0  0  0  0  0  0  0  0  0  0  0  0
    0.7670    5.5010   -3.0720 H   0  0  0  0  0  0  0  0  0  0  0  0
   -4.8880    3.6100    0.2140 H   0  0  0  0  0  0  0  0  0  0  0  0
    1.5070    7.2120   -1.5160 H   0  0  0  0  0  0  0  0  0  0  0  0
  1  2  1  0  0  0  0
  1  4  1  0  0  0  0
  1  3  1  0  0  0  0
  2  6  2  0  0  0  0
  2  5  1  0  0  0  0
  3  7  1  0  0  0  0
  3  8  1  0  0  0  0
  4 10  2  0  0  0  0
  4  9  1  0  0  0  0
  5 12  2  0  0  0  0
  5 11  1  0  0  0  0
  6 14  1  0  0  0  0
  6 13  1  0  0  0  0
  7 15  2  0  0  0  0
  7 16  1  0  0  0  0
  8 17  2  0  0  0  0
  8 13  1  0  0  0  0
  9 18  2  0  0  0  0
  9 11  1  0  0  0  0
 10 19  1  0  0  0  0
 10 28  1  0  0  0  0
 11 20  2  0  0  0  0
 12 21  1  0  0  0  0
 12 22  1  0  0  0  0
 13 29  1  0  0  0  0
 14 23  1  0  0  0  0
 14 21  2  0  0  0  0
 15 30  1  0  0  0  0
 15 24  1  0  0  0  0
 16 25  2  0  0  0  0
 16 31  1  0  0  0  0
 18 26  1  0  0  0  0
 18 32  1  0  0  0  0
 19 33  1  0  0  0  0
 19 26  2  0  0  0  0
 21 34  1  0  0  0  0
 23 35  1  0  0  0  0
 23 36  1  0  0  0  0
 23 37  1  0  0  0  0
 24 38  1  0  0  0  0
 24 27  2  0  0  0  0
 25 27  1  0  0  0  0
 25 39  1  0  0  0  0
 26 40  1  0  0  0  0
 27 41  1  0  0  0  0
M  END
