decoy-801
 OpenBabel06062114513D

 40 44  0  0  0  0  0  0  0  0999 V2000
   -0.0250    1.4250    0.4960 C   0  0  0  0  0  0  0  0  0  0  0  0
   -0.1580   -0.0570    0.3670 C   0  0  0  0  0  0  0  0  0  0  0  0
    1.3710    1.7660    0.2480 N   0  0  0  0  0  0  0  0  0  0  0  0
   -1.0160    2.1480   -0.2890 N   0  0  0  0  0  0  0  0  0  0  0  0
    0.9210   -0.9210    0.5830 C   0  0  0  0  0  0  0  0  0  0  0  0
   -1.2400   -0.8020    0.0630 N   0  0  0  0  0  0  0  0  0  0  0  0
    1.7140    2.5800   -0.7580 C   0  0  0  0  0  0  0  0  0  0  0  0
    2.3500    1.0860    1.0960 C   0  0  0  0  0  0  0  0  0  0  0  0
   -0.6280    2.9260   -1.3580 C   0  0  0  0  0  0  0  0  0  0  0  0
   -2.4030    2.0700    0.1390 C   0  0  0  0  0  0  0  0  0  0  0  0
    0.4510   -2.2140    0.3820 C   0  0  0  0  0  0  0  0  0  0  0  0
    2.2930   -0.4550    0.8760 C   0  0  0  0  0  0  0  0  0  0  0  0
   -0.9040   -2.1010    0.0640 C   0  0  0  0  0  0  0  0  0  0  0  0
    0.7600    3.1370   -1.6170 C   0  0  0  0  0  0  0  0  0  0  0  0
    2.8990    2.8400   -0.9460 O   0  0  0  0  0  0  0  0  0  0  0  0
   -1.5680    3.5490   -2.2280 C   0  0  0  0  0  0  0  0  0  0  0  0
    1.0770   -3.4730    0.4400 C   0  0  0  0  0  0  0  0  0  0  0  0
   -1.6830   -3.2410   -0.2010 C   0  0  0  0  0  0  0  0  0  0  0  0
    1.1520    3.9280   -2.7320 C   0  0  0  0  0  0  0  0  0  0  0  0
   -1.1620    4.3300   -3.3210 C   0  0  0  0  0  0  0  0  0  0  0  0
    0.3060   -4.6240    0.1750 C   0  0  0  0  0  0  0  0  0  0  0  0
   -1.0670   -4.5090   -0.1420 C   0  0  0  0  0  0  0  0  0  0  0  0
    0.2010    4.5170   -3.5760 C   0  0  0  0  0  0  0  0  0  0  0  0
   -0.2120    1.6780    1.5450 H   0  0  0  0  0  0  0  0  0  0  0  0
   -2.1250   -0.4580   -0.1320 H   0  0  0  0  0  0  0  0  0  0  0  0
    3.3800    1.4160    0.9380 H   0  0  0  0  0  0  0  0  0  0  0  0
    2.1180    1.3070    2.1420 H   0  0  0  0  0  0  0  0  0  0  0  0
   -2.7880    3.0720    0.3410 H   0  0  0  0  0  0  0  0  0  0  0  0
   -3.0110    1.6020   -0.6380 H   0  0  0  0  0  0  0  0  0  0  0  0
   -2.5390    1.4880    1.0530 H   0  0  0  0  0  0  0  0  0  0  0  0
    2.6700   -0.9650    1.7660 H   0  0  0  0  0  0  0  0  0  0  0  0
    2.9290   -0.7230    0.0290 H   0  0  0  0  0  0  0  0  0  0  0  0
   -2.5720    3.4350   -2.0910 H   0  0  0  0  0  0  0  0  0  0  0  0
    2.0700   -3.5530    0.6700 H   0  0  0  0  0  0  0  0  0  0  0  0
   -2.6730   -3.1510   -0.4340 H   0  0  0  0  0  0  0  0  0  0  0  0
    2.1400    4.0900   -2.9430 H   0  0  0  0  0  0  0  0  0  0  0  0
   -1.8600    4.7600   -3.9330 H   0  0  0  0  0  0  0  0  0  0  0  0
    0.7420   -5.5480    0.2140 H   0  0  0  0  0  0  0  0  0  0  0  0
   -1.6170   -5.3500   -0.3330 H   0  0  0  0  0  0  0  0  0  0  0  0
    0.5000    5.0850   -4.3720 H   0  0  0  0  0  0  0  0  0  0  0  0
  1 24  1  0  0  0  0
  1  2  1  0  0  0  0
  1  3  1  0  0  0  0
  1  4  1  0  0  0  0
  2  5  2  0  0  0  0
  2  6  1  0  0  0  0
  3  8  1  0  0  0  0
  3  7  1  0  0  0  0
  4 10  1  0  0  0  0
  4  9  1  0  0  0  0
  5 12  1  0  0  0  0
  5 11  1  0  0  0  0
  6 13  1  0  0  0  0
  6 25  1  0  0  0  0
  7 14  1  0  0  0  0
  7 15  2  0  0  0  0
  8 27  1  0  0  0  0
  8 12  1  0  0  0  0
  8 26  1  0  0  0  0
  9 14  2  0  0  0  0
  9 16  1  0  0  0  0
 10 28  1  0  0  0  0
 10 30  1  0  0  0  0
 10 29  1  0  0  0  0
 11 17  2  0  0  0  0
 11 13  1  0  0  0  0
 12 31  1  0  0  0  0
 12 32  1  0  0  0  0
 13 18  2  0  0  0  0
 14 19  1  0  0  0  0
 16 33  1  0  0  0  0
 16 20  2  0  0  0  0
 17 34  1  0  0  0  0
 17 21  1  0  0  0  0
 18 22  1  0  0  0  0
 18 35  1  0  0  0  0
 19 23  2  0  0  0  0
 19 36  1  0  0  0  0
 20 23  1  0  0  0  0
 20 37  1  0  0  0  0
 21 38  1  0  0  0  0
 21 22  2  0  0  0  0
 22 39  1  0  0  0  0
 23 40  1  0  0  0  0
M  END
