decoy-822
 OpenBabel06062114513D

 32 33  0  0  0  0  0  0  0  0999 V2000
    0.0250    1.4630    0.2000 C   0  0  0  0  0  0  0  0  0  0  0  0
   -0.0400    0.1090    0.4750 C   0  0  0  0  0  0  0  0  0  0  0  0
    1.2440    2.1900    0.2410 C   0  0  0  0  0  0  0  0  0  0  0  0
   -1.1690    2.1490   -0.1300 C   0  0  0  0  0  0  0  0  0  0  0  0
    0.7950   -0.7340   -0.1000 N   0  0  0  0  0  0  0  0  0  0  0  0
    1.2570    3.5650   -0.0650 C   0  0  0  0  0  0  0  0  0  0  0  0
    2.4290    1.6170    0.5830 O   0  0  0  0  0  0  0  0  0  0  0  0
   -1.1480    3.5230   -0.4300 C   0  0  0  0  0  0  0  0  0  0  0  0
    0.9310   -2.0810   -0.0380 C   0  0  0  0  0  0  0  0  0  0  0  0
    0.0650    4.2310   -0.4010 C   0  0  0  0  0  0  0  0  0  0  0  0
    1.9610   -2.6580   -0.8090 C   0  0  0  0  0  0  0  0  0  0  0  0
    0.1160   -2.9290    0.7410 C   0  0  0  0  0  0  0  0  0  0  0  0
    2.1940   -4.0550   -0.8190 C   0  0  0  0  0  0  0  0  0  0  0  0
    0.3310   -4.3160    0.7440 C   0  0  0  0  0  0  0  0  0  0  0  0
    1.3630   -4.9010   -0.0270 C   0  0  0  0  0  0  0  0  0  0  0  0
    3.3010   -4.5890   -1.6580 C   0  0  0  0  0  0  0  0  0  0  0  0
    1.4980   -6.3810    0.0530 C   0  0  0  0  0  0  0  0  0  0  0  0
   -0.7650   -0.2250    1.0650 H   0  0  0  0  0  0  0  0  0  0  0  0
   -2.0640    1.6530   -0.1650 H   0  0  0  0  0  0  0  0  0  0  0  0
    2.1350    4.0890   -0.0380 H   0  0  0  0  0  0  0  0  0  0  0  0
    2.2040    0.7930    1.0610 H   0  0  0  0  0  0  0  0  0  0  0  0
   -2.0150    4.0080   -0.6720 H   0  0  0  0  0  0  0  0  0  0  0  0
    0.0810    5.2300   -0.6190 H   0  0  0  0  0  0  0  0  0  0  0  0
    2.5520   -2.0410   -1.3730 H   0  0  0  0  0  0  0  0  0  0  0  0
   -0.6400   -2.5490    1.3130 H   0  0  0  0  0  0  0  0  0  0  0  0
   -0.2790   -4.9030    1.3210 H   0  0  0  0  0  0  0  0  0  0  0  0
    3.8360   -3.8060   -2.1990 H   0  0  0  0  0  0  0  0  0  0  0  0
    4.0240   -5.1080   -1.0270 H   0  0  0  0  0  0  0  0  0  0  0  0
    2.9000   -5.2860   -2.3960 H   0  0  0  0  0  0  0  0  0  0  0  0
    2.3060   -6.7790   -0.5590 H   0  0  0  0  0  0  0  0  0  0  0  0
    1.6910   -6.6750    1.0870 H   0  0  0  0  0  0  0  0  0  0  0  0
    0.5700   -6.8520   -0.2780 H   0  0  0  0  0  0  0  0  0  0  0  0
  1  3  2  0  0  0  0
  1  2  1  0  0  0  0
  1  4  1  0  0  0  0
  2 18  1  0  0  0  0
  2  5  2  0  0  0  0
  3  7  1  0  0  0  0
  3  6  1  0  0  0  0
  4  8  2  0  0  0  0
  4 19  1  0  0  0  0
  5  9  1  0  0  0  0
  6 20  1  0  0  0  0
  6 10  2  0  0  0  0
  7 21  1  0  0  0  0
  8 10  1  0  0  0  0
  8 22  1  0  0  0  0
  9 12  2  0  0  0  0
  9 11  1  0  0  0  0
 10 23  1  0  0  0  0
 11 13  2  0  0  0  0
 11 24  1  0  0  0  0
 12 14  1  0  0  0  0
 12 25  1  0  0  0  0
 13 15  1  0  0  0  0
 13 16  1  0  0  0  0
 14 26  1  0  0  0  0
 14 15  2  0  0  0  0
 15 17  1  0  0  0  0
 16 28  1  0  0  0  0
 16 27  1  0  0  0  0
 16 29  1  0  0  0  0
 17 31  1  0  0  0  0
 17 30  1  0  0  0  0
 17 32  1  0  0  0  0
M  END
