decoy-71
 OpenBabel06062114503D

 41 43  0  0  0  0  0  0  0  0999 V2000
    3.8180    0.8640    0.0140 N   0  0  0  0  0  0  0  0  0  0  0  0
    2.7440    1.1210    0.8930 C   0  0  0  0  0  0  0  0  0  0  0  0
    4.4840   -0.4030    0.0530 C   0  0  0  0  0  0  0  0  0  0  0  0
    3.2810    1.4880   -1.0130 C   0  0  0  0  0  0  0  0  0  0  0  0
    2.0820    1.8530   -0.3090 C   0  0  0  0  0  0  0  0  0  0  0  0
    2.1740   -0.5100    1.4190 S   0  0  0  0  0  0  0  0  0  0  0  0
    3.8660   -1.1600    1.2820 C   0  0  0  0  0  0  0  0  0  0  0  0
    5.9570   -0.2560    0.0690 C   0  0  0  0  0  0  0  0  0  0  0  0
    3.3880    1.1830   -2.1930 O   0  0  0  0  0  0  0  0  0  0  0  0
    0.8790    1.2870   -0.8380 N   0  0  0  0  0  0  0  0  0  0  0  0
    4.5920   -0.8870    2.6390 C   0  0  0  0  0  0  0  0  0  0  0  0
    3.7780   -2.6960    1.0420 C   0  0  0  0  0  0  0  0  0  0  0  0
    6.7460   -1.3500   -0.0190 O   0  0  0  0  0  0  0  0  0  0  0  0
    6.5570    0.9550    0.1260 O   0  0  0  0  0  0  0  0  0  0  0  0
   -0.3190    1.3880   -0.2800 C   0  0  0  0  0  0  0  0  0  0  0  0
   -1.4680    0.7700   -0.9020 C   0  0  0  0  0  0  0  0  0  0  0  0
   -0.4810    1.9910    0.7740 O   0  0  0  0  0  0  0  0  0  0  0  0
   -2.4190    1.7980   -1.2410 O   0  0  0  0  0  0  0  0  0  0  0  0
   -3.5650    1.3150   -1.8110 C   0  0  0  0  0  0  0  0  0  0  0  0
   -4.6740    0.9870   -1.0030 C   0  0  0  0  0  0  0  0  0  0  0  0
   -3.6660    1.1990   -3.2130 C   0  0  0  0  0  0  0  0  0  0  0  0
   -5.8650    0.5200   -1.5910 C   0  0  0  0  0  0  0  0  0  0  0  0
   -4.8560    0.7310   -3.8010 C   0  0  0  0  0  0  0  0  0  0  0  0
   -5.9550    0.3890   -2.9900 C   0  0  0  0  0  0  0  0  0  0  0  0
    3.0310    1.7780    1.7200 H   0  0  0  0  0  0  0  0  0  0  0  0
    4.2400   -0.9460   -0.8670 H   0  0  0  0  0  0  0  0  0  0  0  0
    2.0250    2.9370   -0.1730 H   0  0  0  0  0  0  0  0  0  0  0  0
    0.9440    0.8000   -1.6750 H   0  0  0  0  0  0  0  0  0  0  0  0
    5.5860   -1.3380    2.6410 H   0  0  0  0  0  0  0  0  0  0  0  0
    4.0290   -1.3130    3.4720 H   0  0  0  0  0  0  0  0  0  0  0  0
    4.7060    0.1840    2.8160 H   0  0  0  0  0  0  0  0  0  0  0  0
    3.2040   -2.9170    0.1390 H   0  0  0  0  0  0  0  0  0  0  0  0
    3.2900   -3.1940    1.8840 H   0  0  0  0  0  0  0  0  0  0  0  0
    4.7760   -3.1220    0.9250 H   0  0  0  0  0  0  0  0  0  0  0  0
   -1.1690    0.2220   -1.8020 H   0  0  0  0  0  0  0  0  0  0  0  0
   -1.9020    0.0560   -0.1940 H   0  0  0  0  0  0  0  0  0  0  0  0
   -4.6150    1.0870    0.0130 H   0  0  0  0  0  0  0  0  0  0  0  0
   -2.8730    1.4520   -3.8060 H   0  0  0  0  0  0  0  0  0  0  0  0
   -6.6650    0.2780   -1.0030 H   0  0  0  0  0  0  0  0  0  0  0  0
   -4.9240    0.6420   -4.8170 H   0  0  0  0  0  0  0  0  0  0  0  0
   -6.8200    0.0510   -3.4170 H   0  0  0  0  0  0  0  0  0  0  0  0
  1  3  1  0  0  0  0
  1  2  1  0  0  0  0
  1  4  1  0  0  0  0
  2  5  1  0  0  0  0
  2  6  1  0  0  0  0
  2 25  1  0  0  0  0
  3 26  1  0  0  0  0
  3  8  1  0  0  0  0
  3  7  1  0  0  0  0
  4  5  1  0  0  0  0
  4  9  2  0  0  0  0
  5 27  1  0  0  0  0
  5 10  1  0  0  0  0
  6  7  1  0  0  0  0
  7 11  1  0  0  0  0
  7 12  1  0  0  0  0
  8 14  1  0  0  0  0
  8 13  2  0  0  0  0
 10 15  1  0  0  0  0
 10 28  1  0  0  0  0
 11 29  1  0  0  0  0
 11 31  1  0  0  0  0
 11 30  1  0  0  0  0
 12 33  1  0  0  0  0
 12 32  1  0  0  0  0
 12 34  1  0  0  0  0
 15 17  2  0  0  0  0
 15 16  1  0  0  0  0
 16 36  1  0  0  0  0
 16 18  1  0  0  0  0
 16 35  1  0  0  0  0
 18 19  1  0  0  0  0
 19 20  2  0  0  0  0
 19 21  1  0  0  0  0
 20 37  1  0  0  0  0
 20 22  1  0  0  0  0
 21 23  2  0  0  0  0
 21 38  1  0  0  0  0
 22 39  1  0  0  0  0
 22 24  2  0  0  0  0
 23 24  1  0  0  0  0
 23 40  1  0  0  0  0
 24 41  1  0  0  0  0
M  END
