decoy-116
 OpenBabel06062114503D

 27 28  0  0  0  0  0  0  0  0999 V2000
   -0.3160    1.3640    0.0150 C   0  0  0  0  0  0  0  0  0  0  0  0
   -0.5400    0.0150    0.0930 N   0  0  0  0  0  0  0  0  0  0  0  0
    1.0280    1.8130    0.0310 C   0  0  0  0  0  0  0  0  0  0  0  0
   -1.3510    2.3320   -0.0120 C   0  0  0  0  0  0  0  0  0  0  0  0
   -1.5750   -0.7000   -0.3270 C   0  0  0  0  0  0  0  0  0  0  0  0
    1.3220    3.1910   -0.0080 C   0  0  0  0  0  0  0  0  0  0  0  0
    2.0810    0.9530    0.0710 O   0  0  0  0  0  0  0  0  0  0  0  0
   -1.0540    3.7060   -0.0540 C   0  0  0  0  0  0  0  0  0  0  0  0
   -1.5520   -2.0650   -0.1260 C   0  0  0  0  0  0  0  0  0  0  0  0
   -2.5170   -0.2330   -0.9520 O   0  0  0  0  0  0  0  0  0  0  0  0
    0.2830    4.1360   -0.0550 C   0  0  0  0  0  0  0  0  0  0  0  0
   -1.8530   -2.6420    1.1360 C   0  0  0  0  0  0  0  0  0  0  0  0
   -1.2120   -2.9100   -1.2090 C   0  0  0  0  0  0  0  0  0  0  0  0
   -1.8100   -4.0430    1.2930 C   0  0  0  0  0  0  0  0  0  0  0  0
   -2.2780   -1.7070    2.4890 Cl  0  0  0  0  0  0  0  0  0  0  0  0
   -1.1720   -4.3060   -1.0410 C   0  0  0  0  0  0  0  0  0  0  0  0
   -1.4710   -4.8720    0.2090 C   0  0  0  0  0  0  0  0  0  0  0  0
    0.1880   -0.5040    0.4710 H   0  0  0  0  0  0  0  0  0  0  0  0
   -2.3320    2.0530    0.0290 H   0  0  0  0  0  0  0  0  0  0  0  0
    2.2930    3.5100   -0.0030 H   0  0  0  0  0  0  0  0  0  0  0  0
    1.7270    0.0750   -0.1810 H   0  0  0  0  0  0  0  0  0  0  0  0
   -1.8110    4.3940   -0.0710 H   0  0  0  0  0  0  0  0  0  0  0  0
    0.5000    5.1350   -0.0820 H   0  0  0  0  0  0  0  0  0  0  0  0
   -0.9890   -2.5170   -2.1280 H   0  0  0  0  0  0  0  0  0  0  0  0
   -2.0260   -4.4700    2.1980 H   0  0  0  0  0  0  0  0  0  0  0  0
   -0.9250   -4.9090   -1.8290 H   0  0  0  0  0  0  0  0  0  0  0  0
   -1.4410   -5.8870    0.3310 H   0  0  0  0  0  0  0  0  0  0  0  0
  1  3  2  0  0  0  0
  1  2  1  0  0  0  0
  1  4  1  0  0  0  0
  2 18  1  0  0  0  0
  2  5  1  0  0  0  0
  3  7  1  0  0  0  0
  3  6  1  0  0  0  0
  4 19  1  0  0  0  0
  4  8  2  0  0  0  0
  5  9  1  0  0  0  0
  5 10  2  0  0  0  0
  6 20  1  0  0  0  0
  6 11  2  0  0  0  0
  7 21  1  0  0  0  0
  8 11  1  0  0  0  0
  8 22  1  0  0  0  0
  9 12  2  0  0  0  0
  9 13  1  0  0  0  0
 11 23  1  0  0  0  0
 12 14  1  0  0  0  0
 12 15  1  0  0  0  0
 13 16  2  0  0  0  0
 13 24  1  0  0  0  0
 14 25  1  0  0  0  0
 14 17  2  0  0  0  0
 16 17  1  0  0  0  0
 16 26  1  0  0  0  0
 17 27  1  0  0  0  0
M  END
