decoy-236
 OpenBabel06062114513D

 55 58  0  0  0  0  0  0  0  0999 V2000
    0.9650    0.9830   -0.5710 C   0  0  0  0  0  0  0  0  0  0  0  0
    0.0110    0.2610   -1.6110 C   0  0  0  0  0  0  0  0  0  0  0  0
    2.3580    1.3970   -1.2440 C   0  0  0  0  0  0  0  0  0  0  0  0
    0.1950    2.0980    0.2460 C   0  0  0  0  0  0  0  0  0  0  0  0
    1.2830    0.0380    0.3980 F   0  0  0  0  0  0  0  0  0  0  0  0
   -1.3280   -0.1760   -0.9250 C   0  0  0  0  0  0  0  0  0  0  0  0
    0.7380   -0.9460   -2.2840 C   0  0  0  0  0  0  0  0  0  0  0  0
    2.9260    0.1700   -1.8980 C   0  0  0  0  0  0  0  0  0  0  0  0
    3.2720    1.9440   -0.2100 C   0  0  0  0  0  0  0  0  0  0  0  0
    2.2730    2.5150   -2.3480 C   0  0  0  0  0  0  0  0  0  0  0  0
   -1.2060    1.6520    0.7840 C   0  0  0  0  0  0  0  0  0  0  0  0
    0.0380    3.3220   -0.4640 O   0  0  0  0  0  0  0  0  0  0  0  0
   -2.1460    1.0020   -0.2960 C   0  0  0  0  0  0  0  0  0  0  0  0
   -2.3730   -0.9800   -1.7240 C   0  0  0  0  0  0  0  0  0  0  0  0
    2.1090   -0.5480   -2.8840 C   0  0  0  0  0  0  0  0  0  0  0  0
    4.1390   -0.3130   -1.5420 C   0  0  0  0  0  0  0  0  0  0  0  0
    4.4630    1.3930    0.0770 C   0  0  0  0  0  0  0  0  0  0  0  0
   -3.4190    0.2230    0.2360 C   0  0  0  0  0  0  0  0  0  0  0  0
   -2.6010    2.0970   -1.3410 C   0  0  0  0  0  0  0  0  0  0  0  0
   -3.6940   -0.8060   -0.9270 C   0  0  0  0  0  0  0  0  0  0  0  0
    4.8970    0.2870   -0.5820 C   0  0  0  0  0  0  0  0  0  0  0  0
   -4.5960    1.0260    0.6390 C   0  0  0  0  0  0  0  0  0  0  0  0
   -3.1020   -0.5340    1.4150 O   0  0  0  0  0  0  0  0  0  0  0  0
   -4.1900   -2.0570   -0.4470 O   0  0  0  0  0  0  0  0  0  0  0  0
    5.9910   -0.1840   -0.2990 O   0  0  0  0  0  0  0  0  0  0  0  0
   -4.5820    2.0320    1.6950 C   0  0  0  0  0  0  0  0  0  0  0  0
   -5.6870    0.8030    0.1280 O   0  0  0  0  0  0  0  0  0  0  0  0
   -4.1010    1.5170    2.9310 O   0  0  0  0  0  0  0  0  0  0  0  0
   -0.2360    0.9520   -2.4150 H   0  0  0  0  0  0  0  0  0  0  0  0
   -1.0170   -0.8560   -0.1230 H   0  0  0  0  0  0  0  0  0  0  0  0
    0.7870    2.3580    1.1290 H   0  0  0  0  0  0  0  0  0  0  0  0
    0.8900   -1.7450   -1.5530 H   0  0  0  0  0  0  0  0  0  0  0  0
    0.1170   -1.3500   -3.0880 H   0  0  0  0  0  0  0  0  0  0  0  0
    3.0110    2.7670    0.2830 H   0  0  0  0  0  0  0  0  0  0  0  0
    1.4850    2.3200   -3.0730 H   0  0  0  0  0  0  0  0  0  0  0  0
    3.2170    2.5810   -2.8990 H   0  0  0  0  0  0  0  0  0  0  0  0
    2.0890    3.5050   -1.9330 H   0  0  0  0  0  0  0  0  0  0  0  0
   -1.0350    0.9380    1.5940 H   0  0  0  0  0  0  0  0  0  0  0  0
   -1.6900    2.5170    1.2370 H   0  0  0  0  0  0  0  0  0  0  0  0
    0.9110    3.7600   -0.4140 H   0  0  0  0  0  0  0  0  0  0  0  0
   -2.4710   -0.5710   -2.7340 H   0  0  0  0  0  0  0  0  0  0  0  0
   -2.0840   -2.0320   -1.8050 H   0  0  0  0  0  0  0  0  0  0  0  0
    2.5940   -1.4590   -3.2490 H   0  0  0  0  0  0  0  0  0  0  0  0
    1.9510    0.0870   -3.7570 H   0  0  0  0  0  0  0  0  0  0  0  0
    4.4940   -1.1350   -1.9780 H   0  0  0  0  0  0  0  0  0  0  0  0
    5.0350    1.8120    0.7760 H   0  0  0  0  0  0  0  0  0  0  0  0
   -1.7760    2.5000   -1.9200 H   0  0  0  0  0  0  0  0  0  0  0  0
   -3.0740    2.9380   -0.8330 H   0  0  0  0  0  0  0  0  0  0  0  0
   -3.3220    1.7040   -2.0580 H   0  0  0  0  0  0  0  0  0  0  0  0
   -4.4450   -0.4210   -1.6230 H   0  0  0  0  0  0  0  0  0  0  0  0
   -2.4290   -1.1940    1.1540 H   0  0  0  0  0  0  0  0  0  0  0  0
   -4.3340   -2.5990   -1.2510 H   0  0  0  0  0  0  0  0  0  0  0  0
   -3.9610    2.8750    1.4020 H   0  0  0  0  0  0  0  0  0  0  0  0
   -5.5850    2.4280    1.8790 H   0  0  0  0  0  0  0  0  0  0  0  0
   -4.7310    0.8050    3.1720 H   0  0  0  0  0  0  0  0  0  0  0  0
  1  2  1  0  0  0  0
  1  5  1  0  0  0  0
  1  3  1  0  0  0  0
  1  4  1  0  0  0  0
  2  6  1  0  0  0  0
  2  7  1  0  0  0  0
  2 29  1  0  0  0  0
  3  9  1  0  0  0  0
  3  8  1  0  0  0  0
  3 10  1  0  0  0  0
  4 11  1  0  0  0  0
  4 31  1  0  0  0  0
  4 12  1  0  0  0  0
  6 13  1  0  0  0  0
  6 30  1  0  0  0  0
  6 14  1  0  0  0  0
  7 32  1  0  0  0  0
  7 15  1  0  0  0  0
  7 33  1  0  0  0  0
  8 16  2  0  0  0  0
  8 15  1  0  0  0  0
  9 17  2  0  0  0  0
  9 34  1  0  0  0  0
 10 37  1  0  0  0  0
 10 35  1  0  0  0  0
 10 36  1  0  0  0  0
 11 39  1  0  0  0  0
 11 38  1  0  0  0  0
 11 13  1  0  0  0  0
 12 40  1  0  0  0  0
 13 18  1  0  0  0  0
 13 19  1  0  0  0  0
 14 20  1  0  0  0  0
 14 41  1  0  0  0  0
 14 42  1  0  0  0  0
 15 43  1  0  0  0  0
 15 44  1  0  0  0  0
 16 21  1  0  0  0  0
 16 45  1  0  0  0  0
 17 46  1  0  0  0  0
 17 21  1  0  0  0  0
 18 20  1  0  0  0  0
 18 22  1  0  0  0  0
 18 23  1  0  0  0  0
 19 48  1  0  0  0  0
 19 47  1  0  0  0  0
 19 49  1  0  0  0  0
 20 50  1  0  0  0  0
 20 24  1  0  0  0  0
 21 25  2  0  0  0  0
 22 26  1  0  0  0  0
 22 27  2  0  0  0  0
 23 51  1  0  0  0  0
 24 52  1  0  0  0  0
 26 54  1  0  0  0  0
 26 28  1  0  0  0  0
 26 53  1  0  0  0  0
 28 55  1  0  0  0  0
M  END
