decoy-631
 OpenBabel06062114513D

 52 55  0  0  0  0  0  0  0  0999 V2000
   -0.5250    1.3590   -0.0750 C   0  0  0  0  0  0  0  0  0  0  0  0
   -0.5760   -0.1260    0.2750 C   0  0  0  0  0  0  0  0  0  0  0  0
    0.8710    1.8410   -0.4440 C   0  0  0  0  0  0  0  0  0  0  0  0
   -1.3740    1.7960   -1.2590 C   0  0  0  0  0  0  0  0  0  0  0  0
   -0.8760    2.0180    1.1740 N   0  0  0  0  0  0  0  0  0  0  0  0
    0.2930   -0.6350    1.2810 C   0  0  0  0  0  0  0  0  0  0  0  0
   -1.5030   -1.0440   -0.2910 C   0  0  0  0  0  0  0  0  0  0  0  0
    1.1970    3.2250   -0.3710 C   0  0  0  0  0  0  0  0  0  0  0  0
    1.8690    0.9790   -0.9780 C   0  0  0  0  0  0  0  0  0  0  0  0
   -2.2990    2.8750   -1.1970 C   0  0  0  0  0  0  0  0  0  0  0  0
   -1.1870    1.1900   -2.5330 C   0  0  0  0  0  0  0  0  0  0  0  0
   -2.0100    1.9390    1.9150 C   0  0  0  0  0  0  0  0  0  0  0  0
    0.2720   -1.9870    1.6650 C   0  0  0  0  0  0  0  0  0  0  0  0
   -1.5290   -2.3980    0.0910 C   0  0  0  0  0  0  0  0  0  0  0  0
    2.4630    3.7100   -0.7480 C   0  0  0  0  0  0  0  0  0  0  0  0
    3.1360    1.4580   -1.3560 C   0  0  0  0  0  0  0  0  0  0  0  0
   -3.0390    3.2800   -2.3230 C   0  0  0  0  0  0  0  0  0  0  0  0
   -1.9230    1.5900   -3.6620 C   0  0  0  0  0  0  0  0  0  0  0  0
   -2.0760    2.6350    3.0600 N   0  0  0  0  0  0  0  0  0  0  0  0
   -3.4500    1.0410    1.5410 S   0  0  0  0  0  0  0  0  0  0  0  0
   -0.6370   -2.8720    1.0650 C   0  0  0  0  0  0  0  0  0  0  0  0
    3.4370    2.8240   -1.2340 C   0  0  0  0  0  0  0  0  0  0  0  0
   -2.8560    2.6330   -3.5550 C   0  0  0  0  0  0  0  0  0  0  0  0
   -3.2450    2.5070    3.7060 C   0  0  0  0  0  0  0  0  0  0  0  0
   -4.1130    1.6680    3.0090 C   0  0  0  0  0  0  0  0  0  0  0  0
   -3.5260    3.1460    4.9030 C   0  0  0  0  0  0  0  0  0  0  0  0
   -4.1980    2.4890    5.7810 N   0  0  0  0  0  0  0  0  0  0  0  0
   -3.0820    4.4410    5.1280 C   0  0  0  0  0  0  0  0  0  0  0  0
   -4.5740    2.8920    6.9350 O   0  0  0  0  0  0  0  0  0  0  0  0
   -2.6540    4.8340    6.3490 O   0  0  0  0  0  0  0  0  0  0  0  0
   -3.0060    5.3400    4.1200 O   0  0  0  0  0  0  0  0  0  0  0  0
   -5.3050    1.8560    7.6030 C   0  0  0  0  0  0  0  0  0  0  0  0
   -0.1830    2.5770    1.5590 H   0  0  0  0  0  0  0  0  0  0  0  0
    0.9590   -0.0130    1.7460 H   0  0  0  0  0  0  0  0  0  0  0  0
   -2.1980   -0.7360   -0.9700 H   0  0  0  0  0  0  0  0  0  0  0  0
    0.5040    3.9020   -0.0440 H   0  0  0  0  0  0  0  0  0  0  0  0
    1.6800   -0.0150   -1.1160 H   0  0  0  0  0  0  0  0  0  0  0  0
   -2.4360    3.4000   -0.3340 H   0  0  0  0  0  0  0  0  0  0  0  0
   -0.5070    0.4350   -2.6470 H   0  0  0  0  0  0  0  0  0  0  0  0
    0.9150   -2.3260    2.3850 H   0  0  0  0  0  0  0  0  0  0  0  0
   -2.2070   -3.0360   -0.3330 H   0  0  0  0  0  0  0  0  0  0  0  0
    2.6710    4.7080   -0.6760 H   0  0  0  0  0  0  0  0  0  0  0  0
    3.8370    0.8140   -1.7310 H   0  0  0  0  0  0  0  0  0  0  0  0
   -3.7020    4.0550   -2.2480 H   0  0  0  0  0  0  0  0  0  0  0  0
   -1.7760    1.1270   -4.5610 H   0  0  0  0  0  0  0  0  0  0  0  0
   -0.6580   -3.8550    1.3450 H   0  0  0  0  0  0  0  0  0  0  0  0
    4.3560    3.1740   -1.5130 H   0  0  0  0  0  0  0  0  0  0  0  0
   -3.3910    2.9300   -4.3750 H   0  0  0  0  0  0  0  0  0  0  0  0
   -5.0670    1.4580    3.3080 H   0  0  0  0  0  0  0  0  0  0  0  0
   -5.6100    2.2300    8.5800 H   0  0  0  0  0  0  0  0  0  0  0  0
   -6.2040    1.5830    7.0450 H   0  0  0  0  0  0  0  0  0  0  0  0
   -4.6840    0.9690    7.7560 H   0  0  0  0  0  0  0  0  0  0  0  0
  1  2  1  0  0  0  0
  1  5  1  0  0  0  0
  1  3  1  0  0  0  0
  1  4  1  0  0  0  0
  2  6  2  0  0  0  0
  2  7  1  0  0  0  0
  3  8  2  0  0  0  0
  3  9  1  0  0  0  0
  4 10  2  0  0  0  0
  4 11  1  0  0  0  0
  5 33  1  0  0  0  0
  5 12  1  0  0  0  0
  6 13  1  0  0  0  0
  6 34  1  0  0  0  0
  7 14  2  0  0  0  0
  7 35  1  0  0  0  0
  8 36  1  0  0  0  0
  8 15  1  0  0  0  0
  9 16  2  0  0  0  0
  9 37  1  0  0  0  0
 10 38  1  0  0  0  0
 10 17  1  0  0  0  0
 11 18  2  0  0  0  0
 11 39  1  0  0  0  0
 12 19  2  0  0  0  0
 12 20  1  0  0  0  0
 13 40  1  0  0  0  0
 13 21  2  0  0  0  0
 14 21  1  0  0  0  0
 14 41  1  0  0  0  0
 15 42  1  0  0  0  0
 15 22  2  0  0  0  0
 16 22  1  0  0  0  0
 16 43  1  0  0  0  0
 17 44  1  0  0  0  0
 17 23  2  0  0  0  0
 18 23  1  0  0  0  0
 18 45  1  0  0  0  0
 19 24  1  0  0  0  0
 20 25  1  0  0  0  0
 21 46  1  0  0  0  0
 22 47  1  0  0  0  0
 23 48  1  0  0  0  0
 24 26  1  0  0  0  0
 24 25  2  0  0  0  0
 25 49  1  0  0  0  0
 26 28  1  0  0  0  0
 26 27  2  0  0  0  0
 27 29  1  0  0  0  0
 28 30  1  0  0  0  0
 28 31  2  0  0  0  0
 29 32  1  0  0  0  0
 32 52  1  0  0  0  0
 32 50  1  0  0  0  0
 32 51  1  0  0  0  0
M  END
