decoy-303
 OpenBabel06062114513D

 74 77  0  0  0  0  0  0  0  0999 V2000
    0.3830    1.1680   -0.9220 C   0  0  0  0  0  0  0  0  0  0  0  0
    0.2010   -0.3860   -0.9600 C   0  0  0  0  0  0  0  0  0  0  0  0
    1.8640    1.6610   -1.0540 C   0  0  0  0  0  0  0  0  0  0  0  0
   -0.3950    2.0290   -1.9310 C   0  0  0  0  0  0  0  0  0  0  0  0
    1.0300   -1.0560    0.1910 C   0  0  0  0  0  0  0  0  0  0  0  0
   -1.2930   -0.7970   -0.8190 C   0  0  0  0  0  0  0  0  0  0  0  0
    1.6390    3.2250   -1.0280 C   0  0  0  0  0  0  0  0  0  0  0  0
    2.6190    1.0400    0.1760 C   0  0  0  0  0  0  0  0  0  0  0  0
    2.5690    1.2310   -2.3970 C   0  0  0  0  0  0  0  0  0  0  0  0
    0.3250    3.3960   -1.8660 C   0  0  0  0  0  0  0  0  0  0  0  0
    0.8530   -2.6430    0.1890 C   0  0  0  0  0  0  0  0  0  0  0  0
    2.5030   -0.5130    0.2470 C   0  0  0  0  0  0  0  0  0  0  0  0
   -1.5200   -2.1820   -0.4550 C   0  0  0  0  0  0  0  0  0  0  0  0
    2.7850    4.2300   -1.4570 C   0  0  0  0  0  0  0  0  0  0  0  0
   -0.5820   -3.0370    0.0130 C   0  0  0  0  0  0  0  0  0  0  0  0
    1.3700   -3.1930    1.5780 C   0  0  0  0  0  0  0  0  0  0  0  0
    1.6840   -3.3080   -0.9700 C   0  0  0  0  0  0  0  0  0  0  0  0
    2.3250    5.7290   -1.3300 C   0  0  0  0  0  0  0  0  0  0  0  0
    4.1010    4.0110   -0.6520 C   0  0  0  0  0  0  0  0  0  0  0  0
   -0.9920   -4.4240    0.3150 C   0  0  0  0  0  0  0  0  0  0  0  0
    1.0000   -4.6680    1.8860 C   0  0  0  0  0  0  0  0  0  0  0  0
    3.2230    6.7800   -2.0480 C   0  0  0  0  0  0  0  0  0  0  0  0
   -0.5220   -4.8830    1.7180 C   0  0  0  0  0  0  0  0  0  0  0  0
    2.5940    8.2020   -2.0590 C   0  0  0  0  0  0  0  0  0  0  0  0
   -0.8300   -6.2620    1.9150 O   0  0  0  0  0  0  0  0  0  0  0  0
    3.5170    9.3290   -2.6240 C   0  0  0  0  0  0  0  0  0  0  0  0
    3.8530    9.1400   -4.1300 C   0  0  0  0  0  0  0  0  0  0  0  0
    2.8800   10.7270   -2.3890 C   0  0  0  0  0  0  0  0  0  0  0  0
    0.0060    1.4770    0.0650 H   0  0  0  0  0  0  0  0  0  0  0  0
    0.5490   -0.7540   -1.9260 H   0  0  0  0  0  0  0  0  0  0  0  0
    0.5700   -0.6930    1.1190 H   0  0  0  0  0  0  0  0  0  0  0  0
   -0.3330    1.5980   -2.9340 H   0  0  0  0  0  0  0  0  0  0  0  0
   -1.4490    2.1190   -1.6530 H   0  0  0  0  0  0  0  0  0  0  0  0
   -1.7830   -0.1840   -0.0570 H   0  0  0  0  0  0  0  0  0  0  0  0
   -1.7960   -0.6050   -1.7710 H   0  0  0  0  0  0  0  0  0  0  0  0
    1.3890    3.4940    0.0060 H   0  0  0  0  0  0  0  0  0  0  0  0
    3.6790    1.2880    0.1470 H   0  0  0  0  0  0  0  0  0  0  0  0
    2.2220    1.4580    1.1060 H   0  0  0  0  0  0  0  0  0  0  0  0
    2.0970    1.6890   -3.2670 H   0  0  0  0  0  0  0  0  0  0  0  0
    3.6160    1.5300   -2.3980 H   0  0  0  0  0  0  0  0  0  0  0  0
    2.5480    0.1540   -2.5520 H   0  0  0  0  0  0  0  0  0  0  0  0
    0.5440    3.7300   -2.8850 H   0  0  0  0  0  0  0  0  0  0  0  0
   -0.3300    4.1360   -1.3980 H   0  0  0  0  0  0  0  0  0  0  0  0
    2.9730   -0.8360    1.1780 H   0  0  0  0  0  0  0  0  0  0  0  0
    3.0920   -0.9290   -0.5680 H   0  0  0  0  0  0  0  0  0  0  0  0
   -2.4630   -2.4900   -0.5290 H   0  0  0  0  0  0  0  0  0  0  0  0
    3.0130    4.0480   -2.5110 H   0  0  0  0  0  0  0  0  0  0  0  0
    2.4580   -3.1070    1.6390 H   0  0  0  0  0  0  0  0  0  0  0  0
    0.9560   -2.5890    2.3910 H   0  0  0  0  0  0  0  0  0  0  0  0
    1.3940   -2.9120   -1.9430 H   0  0  0  0  0  0  0  0  0  0  0  0
    2.7530   -3.1440   -0.8390 H   0  0  0  0  0  0  0  0  0  0  0  0
    1.5470   -4.3880   -1.0080 H   0  0  0  0  0  0  0  0  0  0  0  0
    1.3300    5.8390   -1.7620 H   0  0  0  0  0  0  0  0  0  0  0  0
    2.2450    5.9920   -0.2710 H   0  0  0  0  0  0  0  0  0  0  0  0
    4.5680    3.0670   -0.9190 H   0  0  0  0  0  0  0  0  0  0  0  0
    4.8410    4.7790   -0.8680 H   0  0  0  0  0  0  0  0  0  0  0  0
    3.9020    4.0190    0.4220 H   0  0  0  0  0  0  0  0  0  0  0  0
   -2.0780   -4.5630    0.2760 H   0  0  0  0  0  0  0  0  0  0  0  0
   -0.5750   -5.0930   -0.4400 H   0  0  0  0  0  0  0  0  0  0  0  0
    1.5480   -5.3380    1.2190 H   0  0  0  0  0  0  0  0  0  0  0  0
    1.2900   -4.9090    2.9120 H   0  0  0  0  0  0  0  0  0  0  0  0
    4.1910    6.8420   -1.5490 H   0  0  0  0  0  0  0  0  0  0  0  0
    3.3860    6.4510   -3.0760 H   0  0  0  0  0  0  0  0  0  0  0  0
   -1.0540   -4.3100    2.4830 H   0  0  0  0  0  0  0  0  0  0  0  0
    1.6650    8.1760   -2.6360 H   0  0  0  0  0  0  0  0  0  0  0  0
    2.3330    8.4560   -1.0270 H   0  0  0  0  0  0  0  0  0  0  0  0
   -1.8050   -6.3190    1.8360 H   0  0  0  0  0  0  0  0  0  0  0  0
    4.4600    9.3080   -2.0680 H   0  0  0  0  0  0  0  0  0  0  0  0
    4.4600    9.9730   -4.4930 H   0  0  0  0  0  0  0  0  0  0  0  0
    4.4250    8.2250   -4.2870 H   0  0  0  0  0  0  0  0  0  0  0  0
    2.9400    9.0900   -4.7260 H   0  0  0  0  0  0  0  0  0  0  0  0
    2.6990   10.8890   -1.3240 H   0  0  0  0  0  0  0  0  0  0  0  0
    3.5500   11.5160   -2.7380 H   0  0  0  0  0  0  0  0  0  0  0  0
    1.9310   10.8130   -2.9220 H   0  0  0  0  0  0  0  0  0  0  0  0
  1  3  1  0  0  0  0
  1 29  1  0  0  0  0
  1  2  1  0  0  0  0
  1  4  1  0  0  0  0
  2  6  1  0  0  0  0
  2  5  1  0  0  0  0
  2 30  1  0  0  0  0
  3  7  1  0  0  0  0
  3  8  1  0  0  0  0
  3  9  1  0  0  0  0
  4 10  1  0  0  0  0
  4 33  1  0  0  0  0
  4 32  1  0  0  0  0
  5 12  1  0  0  0  0
  5 31  1  0  0  0  0
  5 11  1  0  0  0  0
  6 13  1  0  0  0  0
  6 34  1  0  0  0  0
  6 35  1  0  0  0  0
  7 36  1  0  0  0  0
  7 10  1  0  0  0  0
  7 14  1  0  0  0  0
  8 12  1  0  0  0  0
  8 38  1  0  0  0  0
  8 37  1  0  0  0  0
  9 39  1  0  0  0  0
  9 40  1  0  0  0  0
  9 41  1  0  0  0  0
 10 43  1  0  0  0  0
 10 42  1  0  0  0  0
 11 16  1  0  0  0  0
 11 15  1  0  0  0  0
 11 17  1  0  0  0  0
 12 44  1  0  0  0  0
 12 45  1  0  0  0  0
 13 15  2  0  0  0  0
 13 46  1  0  0  0  0
 14 47  1  0  0  0  0
 14 18  1  0  0  0  0
 14 19  1  0  0  0  0
 15 20  1  0  0  0  0
 16 48  1  0  0  0  0
 16 21  1  0  0  0  0
 16 49  1  0  0  0  0
 17 51  1  0  0  0  0
 17 50  1  0  0  0  0
 17 52  1  0  0  0  0
 18 54  1  0  0  0  0
 18 22  1  0  0  0  0
 18 53  1  0  0  0  0
 19 57  1  0  0  0  0
 19 55  1  0  0  0  0
 19 56  1  0  0  0  0
 20 23  1  0  0  0  0
 20 58  1  0  0  0  0
 20 59  1  0  0  0  0
 21 61  1  0  0  0  0
 21 23  1  0  0  0  0
 21 60  1  0  0  0  0
 22 62  1  0  0  0  0
 22 24  1  0  0  0  0
 22 63  1  0  0  0  0
 23 25  1  0  0  0  0
 23 64  1  0  0  0  0
 24 66  1  0  0  0  0
 24 26  1  0  0  0  0
 24 65  1  0  0  0  0
 25 67  1  0  0  0  0
 26 28  1  0  0  0  0
 26 68  1  0  0  0  0
 26 27  1  0  0  0  0
 27 69  1  0  0  0  0
 27 70  1  0  0  0  0
 27 71  1  0  0  0  0
 28 72  1  0  0  0  0
 28 73  1  0  0  0  0
 28 74  1  0  0  0  0
M  END
