decoy-262
 OpenBabel06062114513D

 32 31  0  0  0  0  0  0  0  0999 V2000
    0.0000    1.5360    0.0090 C   0  0  0  0  0  0  0  0  0  0  0  0
   -0.0190   -0.0160    0.0010 C   0  0  0  0  0  0  0  0  0  0  0  0
    1.4390    2.1150   -0.0010 C   0  0  0  0  0  0  0  0  0  0  0  0
   -1.4580   -0.5960    0.0110 C   0  0  0  0  0  0  0  0  0  0  0  0
    1.4580    3.6670    0.0070 C   0  0  0  0  0  0  0  0  0  0  0  0
   -1.4760   -2.1470    0.0030 C   0  0  0  0  0  0  0  0  0  0  0  0
    2.8970    4.2460   -0.0040 C   0  0  0  0  0  0  0  0  0  0  0  0
   -2.9160   -2.7260    0.0140 C   0  0  0  0  0  0  0  0  0  0  0  0
    2.9170    5.7900    0.0040 C   0  0  0  0  0  0  0  0  0  0  0  0
   -2.9360   -4.2710    0.0060 C   0  0  0  0  0  0  0  0  0  0  0  0
    4.7340    6.4400   -0.0090 Br  0  0  0  0  0  0  0  0  0  0  0  0
   -4.7520   -4.9210    0.0190 Br  0  0  0  0  0  0  0  0  0  0  0  0
   -0.5380    1.9030   -0.8700 H   0  0  0  0  0  0  0  0  0  0  0  0
   -0.5210    1.8930    0.9020 H   0  0  0  0  0  0  0  0  0  0  0  0
    0.5030   -0.3730   -0.8910 H   0  0  0  0  0  0  0  0  0  0  0  0
    0.5190   -0.3830    0.8800 H   0  0  0  0  0  0  0  0  0  0  0  0
    1.9770    1.7490    0.8780 H   0  0  0  0  0  0  0  0  0  0  0  0
    1.9610    1.7580   -0.8940 H   0  0  0  0  0  0  0  0  0  0  0  0
   -1.9790   -0.2380    0.9040 H   0  0  0  0  0  0  0  0  0  0  0  0
   -1.9960   -0.2290   -0.8670 H   0  0  0  0  0  0  0  0  0  0  0  0
    0.9210    4.0340   -0.8720 H   0  0  0  0  0  0  0  0  0  0  0  0
    0.9370    4.0250    0.9000 H   0  0  0  0  0  0  0  0  0  0  0  0
   -0.9560   -2.5050   -0.8890 H   0  0  0  0  0  0  0  0  0  0  0  0
   -0.9390   -2.5150    0.8820 H   0  0  0  0  0  0  0  0  0  0  0  0
    3.4380    3.8840    0.8750 H   0  0  0  0  0  0  0  0  0  0  0  0
    3.4210    3.8940   -0.8960 H   0  0  0  0  0  0  0  0  0  0  0  0
   -3.4400   -2.3740    0.9060 H   0  0  0  0  0  0  0  0  0  0  0  0
   -3.4560   -2.3650   -0.8650 H   0  0  0  0  0  0  0  0  0  0  0  0
    2.4040    6.1800   -0.8770 H   0  0  0  0  0  0  0  0  0  0  0  0
    2.4210    6.1710    0.8990 H   0  0  0  0  0  0  0  0  0  0  0  0
   -2.4390   -4.6510   -0.8890 H   0  0  0  0  0  0  0  0  0  0  0  0
   -2.4230   -4.6610    0.8870 H   0  0  0  0  0  0  0  0  0  0  0  0
  1 14  1  0  0  0  0
  1  2  1  0  0  0  0
  1  3  1  0  0  0  0
  1 13  1  0  0  0  0
  2  4  1  0  0  0  0
  2 16  1  0  0  0  0
  2 15  1  0  0  0  0
  3  5  1  0  0  0  0
  3 17  1  0  0  0  0
  3 18  1  0  0  0  0
  4 19  1  0  0  0  0
  4  6  1  0  0  0  0
  4 20  1  0  0  0  0
  5 22  1  0  0  0  0
  5  7  1  0  0  0  0
  5 21  1  0  0  0  0
  6  8  1  0  0  0  0
  6 24  1  0  0  0  0
  6 23  1  0  0  0  0
  7  9  1  0  0  0  0
  7 25  1  0  0  0  0
  7 26  1  0  0  0  0
  8 27  1  0  0  0  0
  8 10  1  0  0  0  0
  8 28  1  0  0  0  0
  9 30  1  0  0  0  0
  9 11  1  0  0  0  0
  9 29  1  0  0  0  0
 10 12  1  0  0  0  0
 10 32  1  0  0  0  0
 10 31  1  0  0  0  0
M  END
