decoy-27
 OpenBabel06062114503D

 21 21  0  0  0  0  0  0  0  0999 V2000
   -0.0040    1.4520    0.0610 C   0  0  0  0  0  0  0  0  0  0  0  0
    0.0350   -0.0390    0.0280 C   0  0  0  0  0  0  0  0  0  0  0  0
    1.2300    2.0580    0.0920 F   0  0  0  0  0  0  0  0  0  0  0  0
   -0.6530    1.9290   -1.0530 F   0  0  0  0  0  0  0  0  0  0  0  0
   -0.6840    1.8780    1.1770 F   0  0  0  0  0  0  0  0  0  0  0  0
   -1.1770   -0.7670   -0.0050 C   0  0  0  0  0  0  0  0  0  0  0  0
    1.2480   -0.7660    0.0280 C   0  0  0  0  0  0  0  0  0  0  0  0
   -1.2030   -2.1810   -0.0380 C   0  0  0  0  0  0  0  0  0  0  0  0
    1.2620   -2.1780   -0.0010 C   0  0  0  0  0  0  0  0  0  0  0  0
   -2.5150   -2.8900   -0.0720 C   0  0  0  0  0  0  0  0  0  0  0  0
    0.0320   -2.8710   -0.0360 C   0  0  0  0  0  0  0  0  0  0  0  0
    2.5550   -2.9050   -0.0010 C   0  0  0  0  0  0  0  0  0  0  0  0
   -2.4270   -4.2620   -0.1020 F   0  0  0  0  0  0  0  0  0  0  0  0
   -3.2530   -2.5650    1.0420 F   0  0  0  0  0  0  0  0  0  0  0  0
   -3.2230   -2.5140   -1.1880 F   0  0  0  0  0  0  0  0  0  0  0  0
    3.4900   -2.6210    1.6640 Br  0  0  0  0  0  0  0  0  0  0  0  0
   -2.0640   -0.2550   -0.0050 H   0  0  0  0  0  0  0  0  0  0  0  0
    2.1400   -0.2670    0.0480 H   0  0  0  0  0  0  0  0  0  0  0  0
    0.0410   -3.8920   -0.0580 H   0  0  0  0  0  0  0  0  0  0  0  0
    2.4180   -3.9810   -0.1250 H   0  0  0  0  0  0  0  0  0  0  0  0
    3.1790   -2.5500   -0.8230 H   0  0  0  0  0  0  0  0  0  0  0  0
  1  3  1  0  0  0  0
  1  5  1  0  0  0  0
  1  2  1  0  0  0  0
  1  4  1  0  0  0  0
  2  7  2  0  0  0  0
  2  6  1  0  0  0  0
  6 17  1  0  0  0  0
  6  8  2  0  0  0  0
  7 18  1  0  0  0  0
  7  9  1  0  0  0  0
  8 11  1  0  0  0  0
  8 10  1  0  0  0  0
  9 12  1  0  0  0  0
  9 11  2  0  0  0  0
 10 14  1  0  0  0  0
 10 13  1  0  0  0  0
 10 15  1  0  0  0  0
 11 19  1  0  0  0  0
 12 16  1  0  0  0  0
 12 20  1  0  0  0  0
 12 21  1  0  0  0  0
M  END
