decoy-1065
 OpenBabel06062114513D

 40 41  0  0  0  0  0  0  0  0999 V2000
    0.0020    1.3490    0.0610 C   0  0  0  0  0  0  0  0  0  0  0  0
   -0.7480    1.2780   -1.1440 C   0  0  0  0  0  0  0  0  0  0  0  0
    1.1390    2.1400    0.1640 C   0  0  0  0  0  0  0  0  0  0  0  0
   -0.4290    0.6030    1.1830 C   0  0  0  0  0  0  0  0  0  0  0  0
   -1.9380    0.5140   -1.1940 C   0  0  0  0  0  0  0  0  0  0  0  0
   -0.3740    1.9900   -2.2560 O   0  0  0  0  0  0  0  0  0  0  0  0
    1.1250    3.5060   -0.0880 C   0  0  0  0  0  0  0  0  0  0  0  0
    2.1960    1.6030    0.4700 O   0  0  0  0  0  0  0  0  0  0  0  0
   -1.5890   -0.1880    1.1150 C   0  0  0  0  0  0  0  0  0  0  0  0
   -2.3400   -0.2340   -0.0700 C   0  0  0  0  0  0  0  0  0  0  0  0
   -2.6750    0.4460   -2.3460 O   0  0  0  0  0  0  0  0  0  0  0  0
    0.4940    1.2590   -3.1380 C   0  0  0  0  0  0  0  0  0  0  0  0
    0.1580    4.3450    0.5150 C   0  0  0  0  0  0  0  0  0  0  0  0
    2.0660    4.0820   -0.9730 C   0  0  0  0  0  0  0  0  0  0  0  0
   -3.6950    1.4570   -2.4240 C   0  0  0  0  0  0  0  0  0  0  0  0
    0.1200    5.7260    0.2320 C   0  0  0  0  0  0  0  0  0  0  0  0
    2.0440    5.4630   -1.2430 C   0  0  0  0  0  0  0  0  0  0  0  0
    1.0870    6.2930   -0.6270 C   0  0  0  0  0  0  0  0  0  0  0  0
   -0.8210    6.5170    0.8350 O   0  0  0  0  0  0  0  0  0  0  0  0
    1.0610    7.6300   -0.9170 O   0  0  0  0  0  0  0  0  0  0  0  0
   -2.0440    6.6120    0.0860 C   0  0  0  0  0  0  0  0  0  0  0  0
    1.8710    8.4180   -0.0280 C   0  0  0  0  0  0  0  0  0  0  0  0
    0.0940    0.6340    2.0620 H   0  0  0  0  0  0  0  0  0  0  0  0
   -1.8900   -0.7250    1.9310 H   0  0  0  0  0  0  0  0  0  0  0  0
   -3.1860   -0.8070   -0.1120 H   0  0  0  0  0  0  0  0  0  0  0  0
    0.7400    1.9030   -3.9820 H   0  0  0  0  0  0  0  0  0  0  0  0
    1.4260    0.9790   -2.6400 H   0  0  0  0  0  0  0  0  0  0  0  0
    0.0050    0.3610   -3.5250 H   0  0  0  0  0  0  0  0  0  0  0  0
   -0.5330    3.9550    1.1620 H   0  0  0  0  0  0  0  0  0  0  0  0
    2.7690    3.5010   -1.4360 H   0  0  0  0  0  0  0  0  0  0  0  0
   -4.2260    1.3310   -3.3680 H   0  0  0  0  0  0  0  0  0  0  0  0
   -4.4180    1.3560   -1.6110 H   0  0  0  0  0  0  0  0  0  0  0  0
   -3.2650    2.4610   -2.4070 H   0  0  0  0  0  0  0  0  0  0  0  0
    2.7290    5.8630   -1.8870 H   0  0  0  0  0  0  0  0  0  0  0  0
   -2.7290    7.2580    0.6340 H   0  0  0  0  0  0  0  0  0  0  0  0
   -1.8750    7.0530   -0.9000 H   0  0  0  0  0  0  0  0  0  0  0  0
   -2.5170    5.6330   -0.0290 H   0  0  0  0  0  0  0  0  0  0  0  0
    1.7890    9.4630   -0.3300 H   0  0  0  0  0  0  0  0  0  0  0  0
    1.5260    8.3340    1.0050 H   0  0  0  0  0  0  0  0  0  0  0  0
    2.9230    8.1280   -0.0860 H   0  0  0  0  0  0  0  0  0  0  0  0
  1  3  1  0  0  0  0
  1  4  2  0  0  0  0
  1  2  1  0  0  0  0
  2  5  2  0  0  0  0
  2  6  1  0  0  0  0
  3  8  2  0  0  0  0
  3  7  1  0  0  0  0
  4 23  1  0  0  0  0
  4  9  1  0  0  0  0
  5 10  1  0  0  0  0
  5 11  1  0  0  0  0
  6 12  1  0  0  0  0
  7 13  2  0  0  0  0
  7 14  1  0  0  0  0
  9 24  1  0  0  0  0
  9 10  2  0  0  0  0
 10 25  1  0  0  0  0
 11 15  1  0  0  0  0
 12 27  1  0  0  0  0
 12 26  1  0  0  0  0
 12 28  1  0  0  0  0
 13 29  1  0  0  0  0
 13 16  1  0  0  0  0
 14 17  2  0  0  0  0
 14 30  1  0  0  0  0
 15 33  1  0  0  0  0
 15 32  1  0  0  0  0
 15 31  1  0  0  0  0
 16 19  1  0  0  0  0
 16 18  2  0  0  0  0
 17 18  1  0  0  0  0
 17 34  1  0  0  0  0
 18 20  1  0  0  0  0
 19 21  1  0  0  0  0
 20 22  1  0  0  0  0
 21 35  1  0  0  0  0
 21 36  1  0  0  0  0
 21 37  1  0  0  0  0
 22 39  1  0  0  0  0
 22 38  1  0  0  0  0
 22 40  1  0  0  0  0
M  END
