decoy-1031
 OpenBabel06062114513D

 36 38  0  0  0  0  0  0  0  0999 V2000
   -0.0900    1.4330   -0.1260 N   0  0  0  0  0  0  0  0  0  0  0  0
   -0.0220    0.0180   -0.3700 C   0  0  0  0  0  0  0  0  0  0  0  0
    0.9640    2.2590    0.0040 C   0  0  0  0  0  0  0  0  0  0  0  0
   -1.1940    2.2010    0.0150 C   0  0  0  0  0  0  0  0  0  0  0  0
    0.5670   -0.7770    0.8270 C   0  0  0  0  0  0  0  0  0  0  0  0
   -1.3130   -0.5530   -0.6440 O   0  0  0  0  0  0  0  0  0  0  0  0
    0.4720    3.5420    0.2300 C   0  0  0  0  0  0  0  0  0  0  0  0
    2.3100    2.0320   -0.0490 N   0  0  0  0  0  0  0  0  0  0  0  0
   -0.8670    3.4890    0.2340 N   0  0  0  0  0  0  0  0  0  0  0  0
   -0.5150   -1.8280    1.1550 C   0  0  0  0  0  0  0  0  0  0  0  0
    1.8060   -1.3900    0.4660 O   0  0  0  0  0  0  0  0  0  0  0  0
   -1.2810   -1.9060   -0.1800 C   0  0  0  0  0  0  0  0  0  0  0  0
    1.3700    4.5830    0.4010 C   0  0  0  0  0  0  0  0  0  0  0  0
    3.1670    3.0760    0.1230 C   0  0  0  0  0  0  0  0  0  0  0  0
   -0.0290   -3.1390    1.5210 O   0  0  0  0  0  0  0  0  0  0  0  0
   -2.7140   -2.4710   -0.0510 C   0  0  0  0  0  0  0  0  0  0  0  0
    2.6790    4.3320    0.3450 N   0  0  0  0  0  0  0  0  0  0  0  0
    0.9780    5.7220    0.6020 O   0  0  0  0  0  0  0  0  0  0  0  0
    4.4900    2.8670    0.0740 N   0  0  0  0  0  0  0  0  0  0  0  0
    0.4660   -3.3230    2.9870 P   0  0  0  0  0  0  0  0  0  0  0  0
   -3.3460   -2.5070   -1.3250 O   0  0  0  0  0  0  0  0  0  0  0  0
   -0.6050   -3.1510    3.9350 O   0  0  0  0  0  0  0  0  0  0  0  0
    0.9690   -4.7710    3.1300 O   0  0  0  0  0  0  0  0  0  0  0  0
    1.6390   -2.3900    3.3460 O   0  0  0  0  0  0  0  0  0  0  0  0
    0.5870   -0.1400   -1.2670 H   0  0  0  0  0  0  0  0  0  0  0  0
   -2.1590    1.8670   -0.0310 H   0  0  0  0  0  0  0  0  0  0  0  0
    0.7410   -0.1410    1.7000 H   0  0  0  0  0  0  0  0  0  0  0  0
   -1.1970   -1.4190    1.9130 H   0  0  0  0  0  0  0  0  0  0  0  0
    2.4110   -0.6440    0.2730 H   0  0  0  0  0  0  0  0  0  0  0  0
   -0.7250   -2.5230   -0.8980 H   0  0  0  0  0  0  0  0  0  0  0  0
   -2.6790   -3.4860    0.3510 H   0  0  0  0  0  0  0  0  0  0  0  0
   -3.3100   -1.8470    0.6180 H   0  0  0  0  0  0  0  0  0  0  0  0
    3.3040    5.0640    0.4650 H   0  0  0  0  0  0  0  0  0  0  0  0
    4.8360    1.9740   -0.0840 H   0  0  0  0  0  0  0  0  0  0  0  0
    5.1050    3.6080    0.1960 H   0  0  0  0  0  0  0  0  0  0  0  0
   -4.2380   -2.8770   -1.1540 H   0  0  0  0  0  0  0  0  0  0  0  0
  1  3  1  0  0  0  0
  1  4  1  0  0  0  0
  1  2  1  0  0  0  0
  2  5  1  0  0  0  0
  2  6  1  0  0  0  0
  2 25  1  0  0  0  0
  3  7  2  0  0  0  0
  3  8  1  0  0  0  0
  4  9  2  0  0  0  0
  4 26  1  0  0  0  0
  5 10  1  0  0  0  0
  5 27  1  0  0  0  0
  5 11  1  0  0  0  0
  6 12  1  0  0  0  0
  7  9  1  0  0  0  0
  7 13  1  0  0  0  0
  8 14  2  0  0  0  0
 10 12  1  0  0  0  0
 10 15  1  0  0  0  0
 10 28  1  0  0  0  0
 11 29  1  0  0  0  0
 12 30  1  0  0  0  0
 12 16  1  0  0  0  0
 13 18  2  0  0  0  0
 13 17  1  0  0  0  0
 14 17  1  0  0  0  0
 14 19  1  0  0  0  0
 15 20  1  0  0  0  0
 16 31  1  0  0  0  0
 16 32  1  0  0  0  0
 16 21  1  0  0  0  0
 17 33  1  0  0  0  0
 19 35  1  0  0  0  0
 19 34  1  0  0  0  0
 20 23  2  0  0  0  0
 20 24  1  0  0  0  0
 20 22  1  0  0  0  0
 21 36  1  0  0  0  0
M  END
