decoy-967
 OpenBabel06062114513D

 39 40  0  0  0  0  0  0  0  0999 V2000
    0.0600   -1.1200    0.8950 C   0  0  0  0  0  0  0  0  0  0  0  0
    1.3230   -1.4400    0.1480 C   0  0  0  0  0  0  0  0  0  0  0  0
   -0.1360    0.3590    0.9850 C   0  0  0  0  0  0  0  0  0  0  0  0
   -1.1860   -1.9050    0.3690 C   0  0  0  0  0  0  0  0  0  0  0  0
    2.4840   -1.8530    0.8510 C   0  0  0  0  0  0  0  0  0  0  0  0
    1.4100   -1.3400   -1.2640 C   0  0  0  0  0  0  0  0  0  0  0  0
   -0.5330    1.1700   -0.1050 C   0  0  0  0  0  0  0  0  0  0  0  0
    0.0720    0.9670    2.1890 N   0  0  0  0  0  0  0  0  0  0  0  0
   -2.4420   -1.7990    1.2820 C   0  0  0  0  0  0  0  0  0  0  0  0
    3.6810   -2.1500    0.1730 C   0  0  0  0  0  0  0  0  0  0  0  0
    2.6050   -1.6380   -1.9450 C   0  0  0  0  0  0  0  0  0  0  0  0
   -0.6960    2.5550    0.0770 C   0  0  0  0  0  0  0  0  0  0  0  0
   -0.0750    2.2990    2.4010 C   0  0  0  0  0  0  0  0  0  0  0  0
   -3.6830   -2.4000    0.6900 C   0  0  0  0  0  0  0  0  0  0  0  0
    3.7430   -2.0430   -1.2260 C   0  0  0  0  0  0  0  0  0  0  0  0
   -0.4650    3.1310    1.3380 C   0  0  0  0  0  0  0  0  0  0  0  0
   -4.9150   -1.9570    1.4090 C   0  0  0  0  0  0  0  0  0  0  0  0
   -3.6400   -3.8880    0.5650 C   0  0  0  0  0  0  0  0  0  0  0  0
    5.3230   -2.4370   -2.1250 Br  0  0  0  0  0  0  0  0  0  0  0  0
    0.1900   -1.4810    1.9220 H   0  0  0  0  0  0  0  0  0  0  0  0
   -1.4590   -1.5580   -0.6300 H   0  0  0  0  0  0  0  0  0  0  0  0
   -0.9060   -2.9580    0.2870 H   0  0  0  0  0  0  0  0  0  0  0  0
    2.4720   -1.9340    1.8710 H   0  0  0  0  0  0  0  0  0  0  0  0
    0.6000   -1.0580   -1.8170 H   0  0  0  0  0  0  0  0  0  0  0  0
   -0.7170    0.7670   -1.0240 H   0  0  0  0  0  0  0  0  0  0  0  0
   -2.2250   -2.2610    2.2510 H   0  0  0  0  0  0  0  0  0  0  0  0
   -2.6190   -0.7350    1.4610 H   0  0  0  0  0  0  0  0  0  0  0  0
    4.5060   -2.4440    0.7010 H   0  0  0  0  0  0  0  0  0  0  0  0
    2.6440   -1.5610   -2.9630 H   0  0  0  0  0  0  0  0  0  0  0  0
   -0.9850    3.1440   -0.7070 H   0  0  0  0  0  0  0  0  0  0  0  0
    0.0980    2.6880    3.3290 H   0  0  0  0  0  0  0  0  0  0  0  0
   -3.7610   -2.0310   -0.2610 H   0  0  0  0  0  0  0  0  0  0  0  0
   -0.5810    4.1360    1.4810 H   0  0  0  0  0  0  0  0  0  0  0  0
   -4.9110   -2.2990    2.4470 H   0  0  0  0  0  0  0  0  0  0  0  0
   -5.8090   -2.3450    0.9160 H   0  0  0  0  0  0  0  0  0  0  0  0
   -4.9930   -0.8680    1.4000 H   0  0  0  0  0  0  0  0  0  0  0  0
   -2.8370   -4.1970   -0.1040 H   0  0  0  0  0  0  0  0  0  0  0  0
   -4.5700   -4.2670    0.1350 H   0  0  0  0  0  0  0  0  0  0  0  0
   -3.4890   -4.3620    1.5380 H   0  0  0  0  0  0  0  0  0  0  0  0
  1  3  1  0  0  0  0
  1 20  1  0  0  0  0
  1  2  1  0  0  0  0
  1  4  1  0  0  0  0
  2  5  2  0  0  0  0
  2  6  1  0  0  0  0
  3  8  2  0  0  0  0
  3  7  1  0  0  0  0
  4  9  1  0  0  0  0
  4 21  1  0  0  0  0
  4 22  1  0  0  0  0
  5 23  1  0  0  0  0
  5 10  1  0  0  0  0
  6 11  2  0  0  0  0
  6 24  1  0  0  0  0
  7 12  2  0  0  0  0
  7 25  1  0  0  0  0
  8 13  1  0  0  0  0
  9 27  1  0  0  0  0
  9 26  1  0  0  0  0
  9 14  1  0  0  0  0
 10 28  1  0  0  0  0
 10 15  2  0  0  0  0
 11 15  1  0  0  0  0
 11 29  1  0  0  0  0
 12 16  1  0  0  0  0
 12 30  1  0  0  0  0
 13 31  1  0  0  0  0
 13 16  2  0  0  0  0
 14 17  1  0  0  0  0
 14 18  1  0  0  0  0
 14 32  1  0  0  0  0
 15 19  1  0  0  0  0
 16 33  1  0  0  0  0
 17 34  1  0  0  0  0
 17 35  1  0  0  0  0
 17 36  1  0  0  0  0
 18 39  1  0  0  0  0
 18 37  1  0  0  0  0
 18 38  1  0  0  0  0
M  END
