decoy-737
 OpenBabel06062114513D

 75 78  0  0  0  0  0  0  0  0999 V2000
   -0.7360    1.7560    0.4980 C   0  0  0  0  0  0  0  0  0  0  0  0
   -0.6430    0.2020    0.6540 C   0  0  0  0  0  0  0  0  0  0  0  0
    0.6940    2.3950    0.5790 C   0  0  0  0  0  0  0  0  0  0  0  0
   -1.4020    2.1620   -0.8490 C   0  0  0  0  0  0  0  0  0  0  0  0
    0.0210   -0.2860    1.9870 C   0  0  0  0  0  0  0  0  0  0  0  0
   -1.9290   -0.6340    0.5420 C   0  0  0  0  0  0  0  0  0  0  0  0
    0.6330    3.9820    0.4070 C   0  0  0  0  0  0  0  0  0  0  0  0
    1.5120    1.8510    1.8050 C   0  0  0  0  0  0  0  0  0  0  0  0
   -1.1830    3.5360   -1.2540 C   0  0  0  0  0  0  0  0  0  0  0  0
   -0.1120   -1.8510    1.8050 C   0  0  0  0  0  0  0  0  0  0  0  0
    1.4780    0.3010    1.9650 C   0  0  0  0  0  0  0  0  0  0  0  0
   -0.7320    0.1810    3.2910 C   0  0  0  0  0  0  0  0  0  0  0  0
   -1.5250   -2.0000    1.1440 C   0  0  0  0  0  0  0  0  0  0  0  0
   -0.2690    4.3790   -0.7210 C   0  0  0  0  0  0  0  0  0  0  0  0
    2.0970    4.4950    0.1000 C   0  0  0  0  0  0  0  0  0  0  0  0
    0.1080    4.6770    1.7170 C   0  0  0  0  0  0  0  0  0  0  0  0
    0.1150   -2.8440    3.0180 C   0  0  0  0  0  0  0  0  0  0  0  0
   -0.2000    5.7580   -1.2490 C   0  0  0  0  0  0  0  0  0  0  0  0
    2.1940    5.9600   -0.3990 C   0  0  0  0  0  0  0  0  0  0  0  0
   -0.0990   -4.3530    2.6130 C   0  0  0  0  0  0  0  0  0  0  0  0
    1.5070   -2.6510    3.6920 C   0  0  0  0  0  0  0  0  0  0  0  0
    1.2480    6.1790   -1.6020 C   0  0  0  0  0  0  0  0  0  0  0  0
   -0.2360   -5.3470    3.8080 C   0  0  0  0  0  0  0  0  0  0  0  0
    0.9480   -4.8010    1.7510 O   0  0  0  0  0  0  0  0  0  0  0  0
    1.2830    7.5520   -1.9880 O   0  0  0  0  0  0  0  0  0  0  0  0
   -0.7670   -6.7480    3.3890 C   0  0  0  0  0  0  0  0  0  0  0  0
   -0.7770   -7.8190    4.5280 C   0  0  0  0  0  0  0  0  0  0  0  0
   -1.7520   -7.4660    5.6870 C   0  0  0  0  0  0  0  0  0  0  0  0
   -1.1130   -9.2240    3.9550 C   0  0  0  0  0  0  0  0  0  0  0  0
   -1.3620    2.1500    1.3000 H   0  0  0  0  0  0  0  0  0  0  0  0
   -0.0130   -0.1330   -0.1840 H   0  0  0  0  0  0  0  0  0  0  0  0
    1.2260    2.0070   -0.2980 H   0  0  0  0  0  0  0  0  0  0  0  0
   -1.0310    1.5290   -1.6590 H   0  0  0  0  0  0  0  0  0  0  0  0
   -2.4800    1.9960   -0.7660 H   0  0  0  0  0  0  0  0  0  0  0  0
   -2.7380   -0.1740    1.1160 H   0  0  0  0  0  0  0  0  0  0  0  0
   -2.2520   -0.7350   -0.4980 H   0  0  0  0  0  0  0  0  0  0  0  0
    2.5580    2.1480    1.7030 H   0  0  0  0  0  0  0  0  0  0  0  0
    1.1450    2.2900    2.7310 H   0  0  0  0  0  0  0  0  0  0  0  0
   -1.7400    3.8460   -2.0190 H   0  0  0  0  0  0  0  0  0  0  0  0
    0.6230   -2.1420    1.0460 H   0  0  0  0  0  0  0  0  0  0  0  0
    2.0100    0.0540    2.8820 H   0  0  0  0  0  0  0  0  0  0  0  0
    2.0460   -0.1420    1.1410 H   0  0  0  0  0  0  0  0  0  0  0  0
   -1.7300   -0.2520    3.3590 H   0  0  0  0  0  0  0  0  0  0  0  0
   -0.1830   -0.1210    4.1820 H   0  0  0  0  0  0  0  0  0  0  0  0
   -0.8470    1.2610    3.3400 H   0  0  0  0  0  0  0  0  0  0  0  0
   -2.2780   -2.2990    1.8780 H   0  0  0  0  0  0  0  0  0  0  0  0
   -1.4960   -2.7580    0.3550 H   0  0  0  0  0  0  0  0  0  0  0  0
    2.7250    4.4070    0.9900 H   0  0  0  0  0  0  0  0  0  0  0  0
    2.5520    3.8690   -0.6740 H   0  0  0  0  0  0  0  0  0  0  0  0
   -0.8790    4.3080    1.9940 H   0  0  0  0  0  0  0  0  0  0  0  0
    0.7830    4.5110    2.5560 H   0  0  0  0  0  0  0  0  0  0  0  0
    0.0270    5.7580    1.6050 H   0  0  0  0  0  0  0  0  0  0  0  0
   -0.6400   -2.6100    3.7740 H   0  0  0  0  0  0  0  0  0  0  0  0
   -0.8060    5.8970   -2.1510 H   0  0  0  0  0  0  0  0  0  0  0  0
   -0.6020    6.4470   -0.5050 H   0  0  0  0  0  0  0  0  0  0  0  0
    1.9360    6.6480    0.4100 H   0  0  0  0  0  0  0  0  0  0  0  0
    3.2230    6.1740   -0.7010 H   0  0  0  0  0  0  0  0  0  0  0  0
   -1.0290   -4.4370    2.0490 H   0  0  0  0  0  0  0  0  0  0  0  0
    1.5520   -1.7050    4.2250 H   0  0  0  0  0  0  0  0  0  0  0  0
    1.7080   -3.4210    4.4340 H   0  0  0  0  0  0  0  0  0  0  0  0
    2.3040   -2.6770    2.9470 H   0  0  0  0  0  0  0  0  0  0  0  0
    1.6010    5.5850   -2.4510 H   0  0  0  0  0  0  0  0  0  0  0  0
    0.7340   -5.4810    4.2890 H   0  0  0  0  0  0  0  0  0  0  0  0
   -0.9230   -4.9160    4.5390 H   0  0  0  0  0  0  0  0  0  0  0  0
    0.8910   -4.2330    0.9550 H   0  0  0  0  0  0  0  0  0  0  0  0
    0.6990    7.6100   -2.7730 H   0  0  0  0  0  0  0  0  0  0  0  0
   -1.7800   -6.6400    2.9910 H   0  0  0  0  0  0  0  0  0  0  0  0
   -0.1330   -7.1170    2.5780 H   0  0  0  0  0  0  0  0  0  0  0  0
    0.2320   -7.8770    4.9490 H   0  0  0  0  0  0  0  0  0  0  0  0
   -1.7610   -8.2640    6.4330 H   0  0  0  0  0  0  0  0  0  0  0  0
   -1.4390   -6.5500    6.1890 H   0  0  0  0  0  0  0  0  0  0  0  0
   -2.7670   -7.3310    5.3090 H   0  0  0  0  0  0  0  0  0  0  0  0
   -0.3930   -9.5030    3.1830 H   0  0  0  0  0  0  0  0  0  0  0  0
   -1.0690   -9.9790    4.7430 H   0  0  0  0  0  0  0  0  0  0  0  0
   -2.1140   -9.2330    3.5180 H   0  0  0  0  0  0  0  0  0  0  0  0
  1  3  1  0  0  0  0
  1 30  1  0  0  0  0
  1  2  1  0  0  0  0
  1  4  1  0  0  0  0
  2  5  1  0  0  0  0
  2  6  1  0  0  0  0
  2 31  1  0  0  0  0
  3  7  1  0  0  0  0
  3  8  1  0  0  0  0
  3 32  1  0  0  0  0
  4 34  1  0  0  0  0
  4  9  1  0  0  0  0
  4 33  1  0  0  0  0
  5 12  1  0  0  0  0
  5 10  1  0  0  0  0
  5 11  1  0  0  0  0
  6 35  1  0  0  0  0
  6 13  1  0  0  0  0
  6 36  1  0  0  0  0
  7 16  1  0  0  0  0
  7 14  1  0  0  0  0
  7 15  1  0  0  0  0
  8 11  1  0  0  0  0
  8 38  1  0  0  0  0
  8 37  1  0  0  0  0
  9 14  2  0  0  0  0
  9 39  1  0  0  0  0
 10 17  1  0  0  0  0
 10 13  1  0  0  0  0
 10 40  1  0  0  0  0
 11 41  1  0  0  0  0
 11 42  1  0  0  0  0
 12 45  1  0  0  0  0
 12 43  1  0  0  0  0
 12 44  1  0  0  0  0
 13 46  1  0  0  0  0
 13 47  1  0  0  0  0
 14 18  1  0  0  0  0
 15 48  1  0  0  0  0
 15 19  1  0  0  0  0
 15 49  1  0  0  0  0
 16 50  1  0  0  0  0
 16 51  1  0  0  0  0
 16 52  1  0  0  0  0
 17 21  1  0  0  0  0
 17 53  1  0  0  0  0
 17 20  1  0  0  0  0
 18 55  1  0  0  0  0
 18 22  1  0  0  0  0
 18 54  1  0  0  0  0
 19 56  1  0  0  0  0
 19 22  1  0  0  0  0
 19 57  1  0  0  0  0
 20 58  1  0  0  0  0
 20 23  1  0  0  0  0
 20 24  1  0  0  0  0
 21 59  1  0  0  0  0
 21 60  1  0  0  0  0
 21 61  1  0  0  0  0
 22 62  1  0  0  0  0
 22 25  1  0  0  0  0
 23 63  1  0  0  0  0
 23 64  1  0  0  0  0
 23 26  1  0  0  0  0
 24 65  1  0  0  0  0
 25 66  1  0  0  0  0
 26 27  1  0  0  0  0
 26 67  1  0  0  0  0
 26 68  1  0  0  0  0
 27 69  1  0  0  0  0
 27 28  1  0  0  0  0
 27 29  1  0  0  0  0
 28 71  1  0  0  0  0
 28 70  1  0  0  0  0
 28 72  1  0  0  0  0
 29 74  1  0  0  0  0
 29 73  1  0  0  0  0
 29 75  1  0  0  0  0
M  END
