decoy-374
 OpenBabel06062114513D

 25 26  0  0  0  0  0  0  0  0999 V2000
    0.6860    0.6730    0.4340 C   0  0  0  0  0  0  0  0  0  0  0  0
   -0.8260    1.5240    0.5800 S   0  0  0  0  0  0  0  0  0  0  0  0
    1.3840    0.6530   -0.7910 C   0  0  0  0  0  0  0  0  0  0  0  0
    1.2140   -0.0190    1.5440 C   0  0  0  0  0  0  0  0  0  0  0  0
   -2.0140    0.5700    1.3020 N   0  0  0  0  0  0  0  0  0  0  0  0
   -1.3680    2.1740   -0.7670 O   0  0  0  0  0  0  0  0  0  0  0  0
   -0.5790    2.7290    1.5870 O   0  0  0  0  0  0  0  0  0  0  0  0
    2.5980   -0.0510   -0.9050 C   0  0  0  0  0  0  0  0  0  0  0  0
    2.4280   -0.7230    1.4310 C   0  0  0  0  0  0  0  0  0  0  0  0
   -2.5150   -0.5670    0.7760 C   0  0  0  0  0  0  0  0  0  0  0  0
    3.1240   -0.7410    0.2050 C   0  0  0  0  0  0  0  0  0  0  0  0
   -3.4540   -1.2440    1.4560 N   0  0  0  0  0  0  0  0  0  0  0  0
   -2.0570   -1.2870   -0.7400 S   0  0  0  0  0  0  0  0  0  0  0  0
    4.2830   -1.4140    0.0960 N   0  0  0  0  0  0  0  0  0  0  0  0
   -3.8500   -2.3530    0.8230 C   0  0  0  0  0  0  0  0  0  0  0  0
   -3.1950   -2.5390   -0.3840 C   0  0  0  0  0  0  0  0  0  0  0  0
    1.0150    1.1460   -1.6070 H   0  0  0  0  0  0  0  0  0  0  0  0
    0.7190   -0.0160    2.4390 H   0  0  0  0  0  0  0  0  0  0  0  0
   -2.3580    0.8590    2.1620 H   0  0  0  0  0  0  0  0  0  0  0  0
    3.0940   -0.0580   -1.8000 H   0  0  0  0  0  0  0  0  0  0  0  0
    2.7990   -1.2210    2.2440 H   0  0  0  0  0  0  0  0  0  0  0  0
    4.6440   -1.8890    0.8620 H   0  0  0  0  0  0  0  0  0  0  0  0
    4.7610   -1.4260   -0.7480 H   0  0  0  0  0  0  0  0  0  0  0  0
   -4.5560   -2.9910    1.1930 H   0  0  0  0  0  0  0  0  0  0  0  0
   -3.3650   -3.3320   -1.0040 H   0  0  0  0  0  0  0  0  0  0  0  0
  1  2  1  0  0  0  0
  1  4  2  0  0  0  0
  1  3  1  0  0  0  0
  2  5  1  0  0  0  0
  2  7  2  0  0  0  0
  2  6  2  0  0  0  0
  3  8  2  0  0  0  0
  3 17  1  0  0  0  0
  4 18  1  0  0  0  0
  4  9  1  0  0  0  0
  5 19  1  0  0  0  0
  5 10  1  0  0  0  0
  8 11  1  0  0  0  0
  8 20  1  0  0  0  0
  9 21  1  0  0  0  0
  9 11  2  0  0  0  0
 10 12  2  0  0  0  0
 10 13  1  0  0  0  0
 11 14  1  0  0  0  0
 12 15  1  0  0  0  0
 13 16  1  0  0  0  0
 14 22  1  0  0  0  0
 14 23  1  0  0  0  0
 15 24  1  0  0  0  0
 15 16  2  0  0  0  0
 16 25  1  0  0  0  0
M  END
