decoy-1019
 OpenBabel06062114513D

 12 12  0  0  0  0  0  0  0  0999 V2000
   -0.0400    1.3900    0.0070 C   0  0  0  0  0  0  0  0  0  0  0  0
   -0.0200   -0.0170    0.0000 C   0  0  0  0  0  0  0  0  0  0  0  0
    1.1700    2.1100    0.0000 C   0  0  0  0  0  0  0  0  0  0  0  0
   -1.6630    2.2990    0.0260 Br  0  0  0  0  0  0  0  0  0  0  0  0
    1.2080   -0.7060   -0.0140 C   0  0  0  0  0  0  0  0  0  0  0  0
    2.3990    1.4240   -0.0150 C   0  0  0  0  0  0  0  0  0  0  0  0
    2.4180    0.0160   -0.0210 C   0  0  0  0  0  0  0  0  0  0  0  0
    1.2340   -2.5660   -0.0230 Br  0  0  0  0  0  0  0  0  0  0  0  0
    3.9980    2.3760   -0.0240 Br  0  0  0  0  0  0  0  0  0  0  0  0
   -0.8980   -0.5400    0.0050 H   0  0  0  0  0  0  0  0  0  0  0  0
    1.1560    3.1320    0.0050 H   0  0  0  0  0  0  0  0  0  0  0  0
    3.3090   -0.4830   -0.0320 H   0  0  0  0  0  0  0  0  0  0  0  0
  1  4  1  0  0  0  0
  1  2  2  0  0  0  0
  1  3  1  0  0  0  0
  2 10  1  0  0  0  0
  2  5  1  0  0  0  0
  3 11  1  0  0  0  0
  3  6  2  0  0  0  0
  5  7  2  0  0  0  0
  5  8  1  0  0  0  0
  6  7  1  0  0  0  0
  6  9  1  0  0  0  0
  7 12  1  0  0  0  0
M  END
