decoy-940
 OpenBabel06062114513D

 43 44  0  0  0  0  0  0  0  0999 V2000
    1.2610    2.2480   -1.5610 S   0  0  0  0  0  0  0  0  0  0  0  0
    2.5860    1.3330   -0.8980 C   0  0  0  0  0  0  0  0  0  0  0  0
   -0.2230    1.7070   -0.9700 N   0  0  0  0  0  0  0  0  0  0  0  0
    1.2330    2.3360   -3.1490 O   0  0  0  0  0  0  0  0  0  0  0  0
    1.4150    3.7390   -1.0310 O   0  0  0  0  0  0  0  0  0  0  0  0
    3.5830    0.7980   -1.7380 C   0  0  0  0  0  0  0  0  0  0  0  0
    2.6630    1.1140    0.4930 C   0  0  0  0  0  0  0  0  0  0  0  0
   -0.7220    0.5040   -1.1850 C   0  0  0  0  0  0  0  0  0  0  0  0
    4.6450    0.0530   -1.1930 C   0  0  0  0  0  0  0  0  0  0  0  0
    3.7250    0.3680    1.0370 C   0  0  0  0  0  0  0  0  0  0  0  0
   -1.8930    0.2290   -0.6400 N   0  0  0  0  0  0  0  0  0  0  0  0
   -0.1270   -0.3320   -1.8560 O   0  0  0  0  0  0  0  0  0  0  0  0
    4.7290   -0.1710    0.2000 C   0  0  0  0  0  0  0  0  0  0  0  0
   -2.5380   -0.9700   -0.7640 *   0  0  0  0  0  0  0  0  0  0  0  0
    5.8550   -0.9590    0.7500 C   0  0  0  0  0  0  0  0  0  0  0  0
   -3.8200   -0.8110   -1.5120 C   0  0  0  0  0  0  0  0  0  0  0  0
   -2.6280   -1.6160    0.5800 C   0  0  0  0  0  0  0  0  0  0  0  0
   -4.0880   -2.0470   -2.4090 C   0  0  0  0  0  0  0  0  0  0  0  0
   -3.4740   -2.9150    0.6930 C   0  0  0  0  0  0  0  0  0  0  0  0
   -4.4850   -3.3430   -1.6600 C   0  0  0  0  0  0  0  0  0  0  0  0
   -3.4880   -3.8180   -0.5690 C   0  0  0  0  0  0  0  0  0  0  0  0
   -0.7420    2.3230   -0.4280 H   0  0  0  0  0  0  0  0  0  0  0  0
    3.5440    0.9450   -2.7490 H   0  0  0  0  0  0  0  0  0  0  0  0
    1.9480    1.4950    1.1170 H   0  0  0  0  0  0  0  0  0  0  0  0
    5.3580   -0.3270   -1.8200 H   0  0  0  0  0  0  0  0  0  0  0  0
    3.7590    0.2220    2.0490 H   0  0  0  0  0  0  0  0  0  0  0  0
   -2.3250    0.9240   -0.1170 H   0  0  0  0  0  0  0  0  0  0  0  0
   -1.9430   -1.5730   -1.3360 H   0  0  0  0  0  0  0  0  0  0  0  0
    5.8490   -1.9610    0.3180 H   0  0  0  0  0  0  0  0  0  0  0  0
    5.7970   -1.0550    1.8360 H   0  0  0  0  0  0  0  0  0  0  0  0
    6.8000   -0.4720    0.5010 H   0  0  0  0  0  0  0  0  0  0  0  0
   -4.6620   -0.6370   -0.8360 H   0  0  0  0  0  0  0  0  0  0  0  0
   -3.7650    0.0530   -2.1840 H   0  0  0  0  0  0  0  0  0  0  0  0
   -1.6050   -1.8620    0.8830 H   0  0  0  0  0  0  0  0  0  0  0  0
   -3.0170   -0.9020    1.3140 H   0  0  0  0  0  0  0  0  0  0  0  0
   -4.9000   -1.8000   -3.0990 H   0  0  0  0  0  0  0  0  0  0  0  0
   -3.1990   -2.2440   -3.0160 H   0  0  0  0  0  0  0  0  0  0  0  0
   -3.0830   -3.4990    1.5310 H   0  0  0  0  0  0  0  0  0  0  0  0
   -4.5030   -2.6500    0.9530 H   0  0  0  0  0  0  0  0  0  0  0  0
   -5.4740   -3.2090   -1.2130 H   0  0  0  0  0  0  0  0  0  0  0  0
   -4.5770   -4.1410   -2.4030 H   0  0  0  0  0  0  0  0  0  0  0  0
   -2.4810   -3.8980   -0.9870 H   0  0  0  0  0  0  0  0  0  0  0  0
   -3.7930   -4.8220   -0.2600 H   0  0  0  0  0  0  0  0  0  0  0  0
  1  5  2  0  0  0  0
  1  3  1  0  0  0  0
  1  2  1  0  0  0  0
  1  4  2  0  0  0  0
  2  7  2  0  0  0  0
  2  6  1  0  0  0  0
  3 22  1  0  0  0  0
  3  8  1  0  0  0  0
  6  9  2  0  0  0  0
  6 23  1  0  0  0  0
  7 10  1  0  0  0  0
  7 24  1  0  0  0  0
  8 11  1  0  0  0  0
  8 12  2  0  0  0  0
  9 13  1  0  0  0  0
  9 25  1  0  0  0  0
 10 26  1  0  0  0  0
 10 13  2  0  0  0  0
 11 27  1  0  0  0  0
 11 14  1  0  0  0  0
 13 15  1  0  0  0  0
 14 17  1  0  0  0  0
 14 16  1  0  0  0  0
 14 28  1  0  0  0  0
 15 30  1  0  0  0  0
 15 29  1  0  0  0  0
 15 31  1  0  0  0  0
 16 32  1  0  0  0  0
 16 18  1  0  0  0  0
 16 33  1  0  0  0  0
 17 19  1  0  0  0  0
 17 34  1  0  0  0  0
 17 35  1  0  0  0  0
 18 20  1  0  0  0  0
 18 36  1  0  0  0  0
 18 37  1  0  0  0  0
 19 39  1  0  0  0  0
 19 38  1  0  0  0  0
 19 21  1  0  0  0  0
 20 40  1  0  0  0  0
 20 21  1  0  0  0  0
 20 41  1  0  0  0  0
 21 43  1  0  0  0  0
 21 42  1  0  0  0  0
M  END
