decoy-53
 OpenBabel06062114503D

 68 71  0  0  0  0  0  0  0  0999 V2000
   -0.5790    1.7030    0.0380 C   0  0  0  0  0  0  0  0  0  0  0  0
   -0.4580    0.1770    0.3780 C   0  0  0  0  0  0  0  0  0  0  0  0
    0.8120    2.4200    0.2540 C   0  0  0  0  0  0  0  0  0  0  0  0
   -1.1500    1.9560   -1.3970 C   0  0  0  0  0  0  0  0  0  0  0  0
    0.0220   -0.1420    1.8370 C   0  0  0  0  0  0  0  0  0  0  0  0
   -1.6950   -0.7200    0.1860 C   0  0  0  0  0  0  0  0  0  0  0  0
    0.7620    3.9820   -0.0690 C   0  0  0  0  0  0  0  0  0  0  0  0
    1.4410    2.0450    1.6430 C   0  0  0  0  0  0  0  0  0  0  0  0
   -1.1550    3.4620   -1.7740 C   0  0  0  0  0  0  0  0  0  0  0  0
   -0.4610    1.2120   -2.4020 O   0  0  0  0  0  0  0  0  0  0  0  0
   -0.0520   -1.7230    1.8160 C   0  0  0  0  0  0  0  0  0  0  0  0
    1.4460    0.5200    1.9760 C   0  0  0  0  0  0  0  0  0  0  0  0
   -0.9310    0.4200    2.9630 C   0  0  0  0  0  0  0  0  0  0  0  0
   -1.3550   -1.9960    0.9900 C   0  0  0  0  0  0  0  0  0  0  0  0
    0.2060    4.1930   -1.5400 C   0  0  0  0  0  0  0  0  0  0  0  0
    2.1720    4.6910    0.0180 C   0  0  0  0  0  0  0  0  0  0  0  0
   -0.1490    4.7570    0.9580 C   0  0  0  0  0  0  0  0  0  0  0  0
    0.0230   -2.5700    3.1530 C   0  0  0  0  0  0  0  0  0  0  0  0
    2.4280   -0.1090    1.1490 O   0  0  0  0  0  0  0  0  0  0  0  0
    1.2380    3.8460   -2.6680 C   0  0  0  0  0  0  0  0  0  0  0  0
    3.1840    4.2850   -1.0820 C   0  0  0  0  0  0  0  0  0  0  0  0
   -0.0520   -4.1170    2.8760 C   0  0  0  0  0  0  0  0  0  0  0  0
    1.2980   -2.2470    3.9900 C   0  0  0  0  0  0  0  0  0  0  0  0
    2.5970    4.5640   -2.4860 C   0  0  0  0  0  0  0  0  0  0  0  0
   -0.3950   -5.0080    4.1060 C   0  0  0  0  0  0  0  0  0  0  0  0
    3.5210    4.1300   -3.4820 O   0  0  0  0  0  0  0  0  0  0  0  0
   -0.5880   -6.4400    3.8010 C   0  0  0  0  0  0  0  0  0  0  0  0
   -0.9100   -7.2920    4.8000 O   0  0  0  0  0  0  0  0  0  0  0  0
   -0.4280   -6.9520    2.5590 O   0  0  0  0  0  0  0  0  0  0  0  0
   -1.3090    2.1230    0.7280 H   0  0  0  0  0  0  0  0  0  0  0  0
    0.2930   -0.2160   -0.3210 H   0  0  0  0  0  0  0  0  0  0  0  0
    1.4870    1.9710   -0.4770 H   0  0  0  0  0  0  0  0  0  0  0  0
   -0.0030    5.2610   -1.6700 H   0  0  0  0  0  0  0  0  0  0  0  0
   -2.1880    1.6130   -1.4250 H   0  0  0  0  0  0  0  0  0  0  0  0
   -2.5900   -0.2330    0.5840 H   0  0  0  0  0  0  0  0  0  0  0  0
   -1.8660   -0.9520   -0.8690 H   0  0  0  0  0  0  0  0  0  0  0  0
    2.4800    2.3770    1.6760 H   0  0  0  0  0  0  0  0  0  0  0  0
    0.9190    2.5710    2.4410 H   0  0  0  0  0  0  0  0  0  0  0  0
   -1.4580    3.5670   -2.8200 H   0  0  0  0  0  0  0  0  0  0  0  0
   -1.9290    3.9590   -1.1840 H   0  0  0  0  0  0  0  0  0  0  0  0
   -0.6220    0.2700   -2.1890 H   0  0  0  0  0  0  0  0  0  0  0  0
    0.7790   -2.0830    1.2000 H   0  0  0  0  0  0  0  0  0  0  0  0
    1.8080    0.4230    2.9990 H   0  0  0  0  0  0  0  0  0  0  0  0
   -1.9200   -0.0380    2.9270 H   0  0  0  0  0  0  0  0  0  0  0  0
   -0.5180    0.2250    3.9510 H   0  0  0  0  0  0  0  0  0  0  0  0
   -1.0760    1.4950    2.8910 H   0  0  0  0  0  0  0  0  0  0  0  0
   -2.1970   -2.2410    1.6430 H   0  0  0  0  0  0  0  0  0  0  0  0
   -1.2030   -2.8330    0.3020 H   0  0  0  0  0  0  0  0  0  0  0  0
    2.0410    5.7750   -0.0680 H   0  0  0  0  0  0  0  0  0  0  0  0
    2.6330    4.5260    0.9930 H   0  0  0  0  0  0  0  0  0  0  0  0
   -1.1530    4.3440    1.0260 H   0  0  0  0  0  0  0  0  0  0  0  0
    0.2820    4.7430    1.9600 H   0  0  0  0  0  0  0  0  0  0  0  0
   -0.2570    5.8050    0.6700 H   0  0  0  0  0  0  0  0  0  0  0  0
   -0.8440   -2.3070    3.7650 H   0  0  0  0  0  0  0  0  0  0  0  0
    2.5250   -1.0170    1.5050 H   0  0  0  0  0  0  0  0  0  0  0  0
    1.4320    2.7740   -2.7030 H   0  0  0  0  0  0  0  0  0  0  0  0
    0.8250    4.1340   -3.6390 H   0  0  0  0  0  0  0  0  0  0  0  0
    4.1020    4.8650   -0.9570 H   0  0  0  0  0  0  0  0  0  0  0  0
    3.4450    3.2290   -0.9840 H   0  0  0  0  0  0  0  0  0  0  0  0
   -0.8290   -4.3150    2.1370 H   0  0  0  0  0  0  0  0  0  0  0  0
    0.8960   -4.4510    2.4440 H   0  0  0  0  0  0  0  0  0  0  0  0
    1.2450   -1.2460    4.4080 H   0  0  0  0  0  0  0  0  0  0  0  0
    1.4070   -2.9190    4.8380 H   0  0  0  0  0  0  0  0  0  0  0  0
    2.1950   -2.3290    3.3730 H   0  0  0  0  0  0  0  0  0  0  0  0
    2.4560    5.6420   -2.6120 H   0  0  0  0  0  0  0  0  0  0  0  0
    0.4020   -4.9470    4.8470 H   0  0  0  0  0  0  0  0  0  0  0  0
   -1.3150   -4.6380    4.5640 H   0  0  0  0  0  0  0  0  0  0  0  0
    3.1060    4.3710   -4.3370 H   0  0  0  0  0  0  0  0  0  0  0  0
  1  4  1  0  0  0  0
  1  3  1  0  0  0  0
  1 30  1  0  0  0  0
  1  2  1  0  0  0  0
  2  5  1  0  0  0  0
  2  6  1  0  0  0  0
  2 31  1  0  0  0  0
  3  7  1  0  0  0  0
  3  8  1  0  0  0  0
  3 32  1  0  0  0  0
  4 34  1  0  0  0  0
  4  9  1  0  0  0  0
  4 10  1  0  0  0  0
  5 13  1  0  0  0  0
  5 11  1  0  0  0  0
  5 12  1  0  0  0  0
  6 35  1  0  0  0  0
  6 14  1  0  0  0  0
  6 36  1  0  0  0  0
  7 15  1  0  0  0  0
  7 16  1  0  0  0  0
  7 17  1  0  0  0  0
  8 37  1  0  0  0  0
  8 12  1  0  0  0  0
  8 38  1  0  0  0  0
  9 15  1  0  0  0  0
  9 40  1  0  0  0  0
  9 39  1  0  0  0  0
 10 41  1  0  0  0  0
 11 18  1  0  0  0  0
 11 14  1  0  0  0  0
 11 42  1  0  0  0  0
 12 43  1  0  0  0  0
 12 19  1  0  0  0  0
 13 45  1  0  0  0  0
 13 44  1  0  0  0  0
 13 46  1  0  0  0  0
 14 47  1  0  0  0  0
 14 48  1  0  0  0  0
 15 33  1  0  0  0  0
 15 20  1  0  0  0  0
 16 50  1  0  0  0  0
 16 21  1  0  0  0  0
 16 49  1  0  0  0  0
 17 51  1  0  0  0  0
 17 52  1  0  0  0  0
 17 53  1  0  0  0  0
 18 54  1  0  0  0  0
 18 23  1  0  0  0  0
 18 22  1  0  0  0  0
 19 55  1  0  0  0  0
 20 24  1  0  0  0  0
 20 56  1  0  0  0  0
 20 57  1  0  0  0  0
 21 59  1  0  0  0  0
 21 58  1  0  0  0  0
 21 24  1  0  0  0  0
 22 25  1  0  0  0  0
 22 60  1  0  0  0  0
 22 61  1  0  0  0  0
 23 62  1  0  0  0  0
 23 63  1  0  0  0  0
 23 64  1  0  0  0  0
 24 65  1  0  0  0  0
 24 26  1  0  0  0  0
 25 67  1  0  0  0  0
 25 66  1  0  0  0  0
 25 27  1  0  0  0  0
 26 68  1  0  0  0  0
 27 28  1  0  0  0  0
 27 29  2  0  0  0  0
M  END
