decoy-941
 OpenBabel06062114513D

 28 29  0  0  0  0  0  0  0  0999 V2000
    1.6440    1.4660    0.3010 C   0  0  0  0  0  0  0  0  0  0  0  0
    2.6090    0.5260   -0.1640 C   0  0  0  0  0  0  0  0  0  0  0  0
    0.3160    1.1160    0.3170 O   0  0  0  0  0  0  0  0  0  0  0  0
    2.0760    2.7150    0.8090 C   0  0  0  0  0  0  0  0  0  0  0  0
    3.9810    0.8820   -0.1160 C   0  0  0  0  0  0  0  0  0  0  0  0
    2.2460   -0.7480   -0.6900 C   0  0  0  0  0  0  0  0  0  0  0  0
   -0.8720    1.7850    0.3560 C   0  0  0  0  0  0  0  0  0  0  0  0
    3.4390    3.0490    0.8410 C   0  0  0  0  0  0  0  0  0  0  0  0
    4.3930    2.1320    0.3760 C   0  0  0  0  0  0  0  0  0  0  0  0
    3.1690   -1.7050   -0.9450 O   0  0  0  0  0  0  0  0  0  0  0  0
    0.9790   -1.0580   -1.0460 O   0  0  0  0  0  0  0  0  0  0  0  0
   -2.1000    1.0610    0.4190 C   0  0  0  0  0  0  0  0  0  0  0  0
   -0.8610    3.1330    0.2340 O   0  0  0  0  0  0  0  0  0  0  0  0
   -3.3730    1.6900    0.3100 C   0  0  0  0  0  0  0  0  0  0  0  0
   -2.0750   -0.3480    0.5930 C   0  0  0  0  0  0  0  0  0  0  0  0
   -4.5580    0.9270    0.3460 C   0  0  0  0  0  0  0  0  0  0  0  0
   -3.5300    3.0300    0.1630 O   0  0  0  0  0  0  0  0  0  0  0  0
   -3.2600   -1.1040    0.6370 C   0  0  0  0  0  0  0  0  0  0  0  0
   -4.5030   -0.4660    0.5090 C   0  0  0  0  0  0  0  0  0  0  0  0
    1.4080    3.3820    1.1930 H   0  0  0  0  0  0  0  0  0  0  0  0
    4.7040    0.2390   -0.4480 H   0  0  0  0  0  0  0  0  0  0  0  0
    3.7380    3.9530    1.2130 H   0  0  0  0  0  0  0  0  0  0  0  0
    5.3860    2.3720    0.4010 H   0  0  0  0  0  0  0  0  0  0  0  0
   -1.1900   -0.8490    0.6960 H   0  0  0  0  0  0  0  0  0  0  0  0
   -5.4680    1.3860    0.2600 H   0  0  0  0  0  0  0  0  0  0  0  0
   -2.9570    3.4330    0.8470 H   0  0  0  0  0  0  0  0  0  0  0  0
   -3.2170   -2.1180    0.7610 H   0  0  0  0  0  0  0  0  0  0  0  0
   -5.3660   -1.0140    0.5380 H   0  0  0  0  0  0  0  0  0  0  0  0
  1  3  1  0  0  0  0
  1  4  2  0  0  0  0
  1  2  1  0  0  0  0
  2  5  2  0  0  0  0
  2  6  1  0  0  0  0
  3  7  1  0  0  0  0
  4  8  1  0  0  0  0
  4 20  1  0  0  0  0
  5  9  1  0  0  0  0
  5 21  1  0  0  0  0
  6 10  1  0  0  0  0
  6 11  2  0  0  0  0
  7 12  1  0  0  0  0
  7 13  2  0  0  0  0
  8 22  1  0  0  0  0
  8  9  2  0  0  0  0
  9 23  1  0  0  0  0
 12 15  2  0  0  0  0
 12 14  1  0  0  0  0
 14 16  2  0  0  0  0
 14 17  1  0  0  0  0
 15 18  1  0  0  0  0
 15 24  1  0  0  0  0
 16 19  1  0  0  0  0
 16 25  1  0  0  0  0
 17 26  1  0  0  0  0
 18 27  1  0  0  0  0
 18 19  2  0  0  0  0
 19 28  1  0  0  0  0
M  END
