decoy-319
 OpenBabel06062114513D

 43 45  0  0  0  0  0  0  0  0999 V2000
    0.1850    1.6760    0.4240 P   0  0  0  0  0  0  0  0  0  0  0  0
    0.4610    0.0620    0.8020 C   0  0  0  0  0  0  0  0  0  0  0  0
    1.7290    2.2660    0.1200 C   0  0  0  0  0  0  0  0  0  0  0  0
   -0.5020    1.5970   -1.1080 C   0  0  0  0  0  0  0  0  0  0  0  0
    1.0470   -0.1160    2.1600 C   0  0  0  0  0  0  0  0  0  0  0  0
    1.7330    3.7180   -0.2110 C   0  0  0  0  0  0  0  0  0  0  0  0
   -1.9130    1.1220   -1.0800 C   0  0  0  0  0  0  0  0  0  0  0  0
    0.2900    0.1810    3.3200 C   0  0  0  0  0  0  0  0  0  0  0  0
    2.3650   -0.6090    2.3230 C   0  0  0  0  0  0  0  0  0  0  0  0
    1.3960    4.6840    0.7690 C   0  0  0  0  0  0  0  0  0  0  0  0
    2.0980    4.1690   -1.5030 C   0  0  0  0  0  0  0  0  0  0  0  0
   -2.9320    1.9180   -0.5020 C   0  0  0  0  0  0  0  0  0  0  0  0
   -2.2730   -0.1230   -1.6520 C   0  0  0  0  0  0  0  0  0  0  0  0
    0.8390    0.0070    4.6030 C   0  0  0  0  0  0  0  0  0  0  0  0
    2.9140   -0.7840    3.6070 C   0  0  0  0  0  0  0  0  0  0  0  0
    1.4060    6.0570    0.4620 C   0  0  0  0  0  0  0  0  0  0  0  0
    2.1080    5.5420   -1.8110 C   0  0  0  0  0  0  0  0  0  0  0  0
   -4.2680    1.4750   -0.4800 C   0  0  0  0  0  0  0  0  0  0  0  0
   -3.6080   -0.5660   -1.6300 C   0  0  0  0  0  0  0  0  0  0  0  0
    2.1520   -0.4750    4.7470 C   0  0  0  0  0  0  0  0  0  0  0  0
    1.7610    6.4860   -0.8280 C   0  0  0  0  0  0  0  0  0  0  0  0
   -4.6060    0.2320   -1.0430 C   0  0  0  0  0  0  0  0  0  0  0  0
   -0.4910   -0.4730    0.7870 H   0  0  0  0  0  0  0  0  0  0  0  0
    1.0940   -0.4010    0.0400 H   0  0  0  0  0  0  0  0  0  0  0  0
    2.3410    2.1350    1.0140 H   0  0  0  0  0  0  0  0  0  0  0  0
    2.2050    1.6840   -0.6750 H   0  0  0  0  0  0  0  0  0  0  0  0
   -0.5040    2.5960   -1.5480 H   0  0  0  0  0  0  0  0  0  0  0  0
    0.1080    0.9670   -1.7620 H   0  0  0  0  0  0  0  0  0  0  0  0
   -0.6690    0.5280    3.2340 H   0  0  0  0  0  0  0  0  0  0  0  0
    2.9380   -0.8390    1.5080 H   0  0  0  0  0  0  0  0  0  0  0  0
    1.1390    4.3900    1.7150 H   0  0  0  0  0  0  0  0  0  0  0  0
    2.3520    3.4990   -2.2330 H   0  0  0  0  0  0  0  0  0  0  0  0
   -2.7060    2.8270   -0.0910 H   0  0  0  0  0  0  0  0  0  0  0  0
   -1.5630   -0.7210   -2.0820 H   0  0  0  0  0  0  0  0  0  0  0  0
    0.2830    0.2280    5.4320 H   0  0  0  0  0  0  0  0  0  0  0  0
    3.8690   -1.1360    3.7110 H   0  0  0  0  0  0  0  0  0  0  0  0
    1.1570    6.7430    1.1780 H   0  0  0  0  0  0  0  0  0  0  0  0
    2.3680    5.8540   -2.7490 H   0  0  0  0  0  0  0  0  0  0  0  0
   -4.9930    2.0580   -0.0560 H   0  0  0  0  0  0  0  0  0  0  0  0
   -3.8540   -1.4690   -2.0410 H   0  0  0  0  0  0  0  0  0  0  0  0
    2.5510   -0.6020    5.6800 H   0  0  0  0  0  0  0  0  0  0  0  0
    1.7690    7.4840   -1.0520 H   0  0  0  0  0  0  0  0  0  0  0  0
   -5.5760   -0.0900   -1.0280 H   0  0  0  0  0  0  0  0  0  0  0  0
  1  2  1  0  0  0  0
  1  3  1  0  0  0  0
  1  4  1  0  0  0  0
  2  5  1  0  0  0  0
  2 23  1  0  0  0  0
  2 24  1  0  0  0  0
  3 25  1  0  0  0  0
  3  6  1  0  0  0  0
  3 26  1  0  0  0  0
  4  7  1  0  0  0  0
  4 27  1  0  0  0  0
  4 28  1  0  0  0  0
  5  9  2  0  0  0  0
  5  8  1  0  0  0  0
  6 10  2  0  0  0  0
  6 11  1  0  0  0  0
  7 12  2  0  0  0  0
  7 13  1  0  0  0  0
  8 14  2  0  0  0  0
  8 29  1  0  0  0  0
  9 15  1  0  0  0  0
  9 30  1  0  0  0  0
 10 31  1  0  0  0  0
 10 16  1  0  0  0  0
 11 17  2  0  0  0  0
 11 32  1  0  0  0  0
 12 18  1  0  0  0  0
 12 33  1  0  0  0  0
 13 19  2  0  0  0  0
 13 34  1  0  0  0  0
 14 20  1  0  0  0  0
 14 35  1  0  0  0  0
 15 36  1  0  0  0  0
 15 20  2  0  0  0  0
 16 37  1  0  0  0  0
 16 21  2  0  0  0  0
 17 21  1  0  0  0  0
 17 38  1  0  0  0  0
 18 39  1  0  0  0  0
 18 22  2  0  0  0  0
 19 22  1  0  0  0  0
 19 40  1  0  0  0  0
 20 41  1  0  0  0  0
 21 42  1  0  0  0  0
 22 43  1  0  0  0  0
M  END
