decoy-563
 OpenBabel06062114513D

 47 49  0  0  0  0  0  0  0  0999 V2000
    0.0360    1.4150   -0.0820 C   0  0  0  0  0  0  0  0  0  0  0  0
   -0.4790    0.0550    0.3760 C   0  0  0  0  0  0  0  0  0  0  0  0
    1.5460    1.5500    0.0740 C   0  0  0  0  0  0  0  0  0  0  0  0
   -0.4400    1.7760   -1.4840 C   0  0  0  0  0  0  0  0  0  0  0  0
   -0.6900    2.6200    1.0190 Cl  0  0  0  0  0  0  0  0  0  0  0  0
   -1.8730   -0.1560    0.5730 C   0  0  0  0  0  0  0  0  0  0  0  0
    0.3610   -1.0820    0.5390 C   0  0  0  0  0  0  0  0  0  0  0  0
    2.1390    1.5330    1.3690 C   0  0  0  0  0  0  0  0  0  0  0  0
    2.4420    1.6030   -1.0300 C   0  0  0  0  0  0  0  0  0  0  0  0
   -0.3030    3.1080   -1.9680 C   0  0  0  0  0  0  0  0  0  0  0  0
   -0.9470    0.8190   -2.4060 C   0  0  0  0  0  0  0  0  0  0  0  0
   -2.3910   -1.4050    0.9580 C   0  0  0  0  0  0  0  0  0  0  0  0
   -0.1500   -2.3340    0.9250 C   0  0  0  0  0  0  0  0  0  0  0  0
    3.5300    1.6160    1.5530 C   0  0  0  0  0  0  0  0  0  0  0  0
    3.8350    1.6880   -0.8520 C   0  0  0  0  0  0  0  0  0  0  0  0
   -0.6950    3.4740   -3.2680 C   0  0  0  0  0  0  0  0  0  0  0  0
   -1.3420    1.1780   -3.7080 C   0  0  0  0  0  0  0  0  0  0  0  0
   -1.5310   -2.5050    1.1280 C   0  0  0  0  0  0  0  0  0  0  0  0
    4.3870    1.6860    0.4410 C   0  0  0  0  0  0  0  0  0  0  0  0
   -1.2090    2.5060   -4.1490 C   0  0  0  0  0  0  0  0  0  0  0  0
   -2.0270   -3.7160    1.5270 O   0  0  0  0  0  0  0  0  0  0  0  0
    5.7400    1.7920    0.6160 O   0  0  0  0  0  0  0  0  0  0  0  0
   -1.6140    2.8620   -5.4060 O   0  0  0  0  0  0  0  0  0  0  0  0
   -2.3970   -4.5660    0.4280 C   0  0  0  0  0  0  0  0  0  0  0  0
    6.4070    0.5190    0.6640 C   0  0  0  0  0  0  0  0  0  0  0  0
   -0.5700    2.7570   -6.3890 C   0  0  0  0  0  0  0  0  0  0  0  0
   -2.5350    0.6080    0.4250 H   0  0  0  0  0  0  0  0  0  0  0  0
    1.3650   -1.0230    0.3640 H   0  0  0  0  0  0  0  0  0  0  0  0
    1.5530    1.4470    2.2020 H   0  0  0  0  0  0  0  0  0  0  0  0
    2.0970    1.5660   -1.9890 H   0  0  0  0  0  0  0  0  0  0  0  0
    0.1000    3.8340   -1.3710 H   0  0  0  0  0  0  0  0  0  0  0  0
   -1.0260   -0.1660   -2.1510 H   0  0  0  0  0  0  0  0  0  0  0  0
   -3.3970   -1.5160    1.1030 H   0  0  0  0  0  0  0  0  0  0  0  0
    0.4840   -3.1270    1.0450 H   0  0  0  0  0  0  0  0  0  0  0  0
    3.9190    1.6140    2.4990 H   0  0  0  0  0  0  0  0  0  0  0  0
    4.4500    1.7370   -1.6680 H   0  0  0  0  0  0  0  0  0  0  0  0
   -0.5930    4.4430   -3.5760 H   0  0  0  0  0  0  0  0  0  0  0  0
   -1.7140    0.4660   -4.3410 H   0  0  0  0  0  0  0  0  0  0  0  0
   -2.7790   -5.5020    0.8350 H   0  0  0  0  0  0  0  0  0  0  0  0
   -3.1840   -4.1120   -0.1800 H   0  0  0  0  0  0  0  0  0  0  0  0
   -1.5360   -4.7960   -0.2050 H   0  0  0  0  0  0  0  0  0  0  0  0
    7.4730    0.6990    0.8050 H   0  0  0  0  0  0  0  0  0  0  0  0
    6.0500   -0.0860    1.5010 H   0  0  0  0  0  0  0  0  0  0  0  0
    6.2750   -0.0340   -0.2690 H   0  0  0  0  0  0  0  0  0  0  0  0
   -0.9790    3.0570   -7.3540 H   0  0  0  0  0  0  0  0  0  0  0  0
    0.2670    3.4190   -6.1530 H   0  0  0  0  0  0  0  0  0  0  0  0
   -0.2090    1.7290   -6.4770 H   0  0  0  0  0  0  0  0  0  0  0  0
  1  3  1  0  0  0  0
  1  2  1  0  0  0  0
  1  5  1  0  0  0  0
  1  4  1  0  0  0  0
  2  7  2  0  0  0  0
  2  6  1  0  0  0  0
  3  8  2  0  0  0  0
  3  9  1  0  0  0  0
  4 10  2  0  0  0  0
  4 11  1  0  0  0  0
  6 12  2  0  0  0  0
  6 27  1  0  0  0  0
  7 13  1  0  0  0  0
  7 28  1  0  0  0  0
  8 14  1  0  0  0  0
  8 29  1  0  0  0  0
  9 15  2  0  0  0  0
  9 30  1  0  0  0  0
 10 31  1  0  0  0  0
 10 16  1  0  0  0  0
 11 32  1  0  0  0  0
 11 17  2  0  0  0  0
 12 33  1  0  0  0  0
 12 18  1  0  0  0  0
 13 34  1  0  0  0  0
 13 18  2  0  0  0  0
 14 35  1  0  0  0  0
 14 19  2  0  0  0  0
 15 19  1  0  0  0  0
 15 36  1  0  0  0  0
 16 20  2  0  0  0  0
 16 37  1  0  0  0  0
 17 20  1  0  0  0  0
 17 38  1  0  0  0  0
 18 21  1  0  0  0  0
 19 22  1  0  0  0  0
 20 23  1  0  0  0  0
 21 24  1  0  0  0  0
 22 25  1  0  0  0  0
 23 26  1  0  0  0  0
 24 39  1  0  0  0  0
 24 40  1  0  0  0  0
 24 41  1  0  0  0  0
 25 42  1  0  0  0  0
 25 43  1  0  0  0  0
 25 44  1  0  0  0  0
 26 46  1  0  0  0  0
 26 45  1  0  0  0  0
 26 47  1  0  0  0  0
M  END
