
  ACD/Labs06062116173D

 51 52  0  0  0  0  0  0  0  0  1 V2000
   12.8298  -13.1081    0.0992 C   0  0  0  0  0  0  0  0  0  0  0  0
   11.5228  -13.5739    0.2156 C   0  0  0  0  0  0  0  0  0  0  0  0
   13.8978  -13.9929    0.3326 C   0  0  0  0  0  0  0  0  0  0  0  0
   12.7566  -11.8160   -0.2377 N   0  0  0  0  0  0  0  0  0  0  0  0
   10.6846  -12.5617   -0.0506 N   0  0  0  0  0  0  0  0  0  0  0  0
   11.2646  -14.8622    0.5507 N   0  0  0  0  0  0  0  0  0  0  0  0
   13.5860  -15.2800    0.6672 N   0  0  0  0  0  0  0  0  0  0  0  0
   15.1703  -13.5514    0.2226 N   0  0  0  0  0  0  0  0  0  0  0  0
   11.4551  -11.4917   -0.3264 C   0  0  0  0  0  0  0  0  0  0  0  0
   12.2993  -15.7170    0.7769 C   0  0  0  0  0  0  0  0  0  0  0  0
   16.3325  -14.3525    0.4346 C   0  0  0  0  0  0  0  0  0  0  0  0
   17.6172  -13.5140    0.2205 C   0  0  0  0  0  0  0  0  0  0  0  0
   18.9116  -14.3413    0.4399 C   0  0  0  0  0  0  0  0  0  0  0  0
   20.1990  -13.5017    0.2255 C   0  0  0  0  0  0  0  0  0  0  0  0
   21.4938  -14.3276    0.4446 C   0  0  0  0  0  0  0  0  0  0  0  0
   22.7813  -13.4880    0.2301 C   0  0  0  0  0  0  0  0  0  0  0  0
   24.0766  -14.3148    0.4495 C   0  0  0  0  0  0  0  0  0  0  0  0
   25.3640  -13.4752    0.2350 C   0  0  0  0  0  0  0  0  0  0  0  0
   26.6588  -14.3014    0.4531 C   0  0  0  0  0  0  0  0  0  0  0  0
   27.9454  -13.4619    0.2398 C   0  0  0  0  0  0  0  0  0  0  0  0
   29.2397  -14.2894    0.4583 C   0  0  0  0  0  0  0  0  0  0  0  0
   30.5234  -13.4558    0.2454 C   0  0  0  0  0  0  0  0  0  0  0  0
   13.5072  -11.2207   -0.3905 H   0  0  0  0  0  0  0  0  0  0  0  0
   15.3031  -12.6209   -0.0192 H   0  0  0  0  0  0  0  0  0  0  0  0
   11.1011  -10.5653   -0.5683 H   0  0  0  0  0  0  0  0  0  0  0  0
   12.1119  -16.6876    1.0284 H   0  0  0  0  0  0  0  0  0  0  0  0
   16.3195  -14.7426    1.4557 H   0  0  0  0  0  0  0  0  0  0  0  0
   16.3249  -15.1912   -0.2659 H   0  0  0  0  0  0  0  0  0  0  0  0
   17.6142  -13.1173   -0.7983 H   0  0  0  0  0  0  0  0  0  0  0  0
   17.6088  -12.6706    0.9166 H   0  0  0  0  0  0  0  0  0  0  0  0
   18.9118  -14.7393    1.4590 H   0  0  0  0  0  0  0  0  0  0  0  0
   18.9168  -15.1851   -0.2560 H   0  0  0  0  0  0  0  0  0  0  0  0
   20.1987  -13.1037   -0.7936 H   0  0  0  0  0  0  0  0  0  0  0  0
   20.1937  -12.6578    0.9215 H   0  0  0  0  0  0  0  0  0  0  0  0
   21.4941  -14.7256    1.4637 H   0  0  0  0  0  0  0  0  0  0  0  0
   21.4995  -15.1723   -0.2512 H   0  0  0  0  0  0  0  0  0  0  0  0
   22.7814  -13.0909   -0.7887 H   0  0  0  0  0  0  0  0  0  0  0  0
   22.7760  -12.6442    0.9261 H   0  0  0  0  0  0  0  0  0  0  0  0
   24.0768  -14.7131    1.4676 H   0  0  0  0  0  0  0  0  0  0  0  0
   24.0818  -15.1587   -0.2465 H   0  0  0  0  0  0  0  0  0  0  0  0
   25.3637  -13.0772   -0.7841 H   0  0  0  0  0  0  0  0  0  0  0  0
   25.3578  -12.6318    0.9311 H   0  0  0  0  0  0  0  0  0  0  0  0
   26.6591  -14.6994    1.4722 H   0  0  0  0  0  0  0  0  0  0  0  0
   26.6641  -15.1450   -0.2419 H   0  0  0  0  0  0  0  0  0  0  0  0
   27.9464  -13.0644   -0.7792 H   0  0  0  0  0  0  0  0  0  0  0  0
   27.9414  -12.6186    0.9359 H   0  0  0  0  0  0  0  0  0  0  0  0
   29.2476  -14.6874    1.4763 H   0  0  0  0  0  0  0  0  0  0  0  0
   29.2535  -15.1323   -0.2369 H   0  0  0  0  0  0  0  0  0  0  0  0
   31.4017  -14.0825    0.4117 H   0  0  0  0  0  0  0  0  0  0  0  0
   30.5605  -13.0669   -0.7732 H   0  0  0  0  0  0  0  0  0  0  0  0
   30.5546  -12.6202    0.9468 H   0  0  0  0  0  0  0  0  0  0  0  0
  1  4  1  0  0  0  0
  1  2  2  0  0  0  0
  1  3  1  0  0  0  0
  2  5  1  0  0  0  0
  2  6  1  0  0  0  0
  3  8  1  0  0  0  0
  3  7  2  0  0  0  0
  4  9  1  0  0  0  0
  4 23  1  0  0  0  0
  5  9  2  0  0  0  0
  6 10  2  0  0  0  0
  7 10  1  0  0  0  0
  8 24  1  0  0  0  0
  8 11  1  0  0  0  0
  9 25  1  0  0  0  0
 10 26  1  0  0  0  0
 11 12  1  0  0  0  0
 11 27  1  0  0  0  0
 11 28  1  0  0  0  0
 12 30  1  0  0  0  0
 12 13  1  0  0  0  0
 12 29  1  0  0  0  0
 13 14  1  0  0  0  0
 13 31  1  0  0  0  0
 13 32  1  0  0  0  0
 14 34  1  0  0  0  0
 14 15  1  0  0  0  0
 14 33  1  0  0  0  0
 15 16  1  0  0  0  0
 15 35  1  0  0  0  0
 15 36  1  0  0  0  0
 16 38  1  0  0  0  0
 16 17  1  0  0  0  0
 16 37  1  0  0  0  0
 17 18  1  0  0  0  0
 17 39  1  0  0  0  0
 17 40  1  0  0  0  0
 18 42  1  0  0  0  0
 18 19  1  0  0  0  0
 18 41  1  0  0  0  0
 19 20  1  0  0  0  0
 19 43  1  0  0  0  0
 19 44  1  0  0  0  0
 20 46  1  0  0  0  0
 20 21  1  0  0  0  0
 20 45  1  0  0  0  0
 21 22  1  0  0  0  0
 21 47  1  0  0  0  0
 21 48  1  0  0  0  0
 22 51  1  0  0  0  0
 22 49  1  0  0  0  0
 22 50  1  0  0  0  0
M  END
