decoy-104
 OpenBabel06062114503D

 48 51  0  0  0  0  0  0  0  0999 V2000
   -0.4310    1.0100   -0.0710 C   0  0  0  0  0  0  0  0  0  0  0  0
   -0.4660   -0.3260    0.4440 C   0  0  0  0  0  0  0  0  0  0  0  0
    0.7770    1.5350   -0.6140 C   0  0  0  0  0  0  0  0  0  0  0  0
   -1.6120    1.7750   -0.0020 C   0  0  0  0  0  0  0  0  0  0  0  0
   -1.6710   -0.7970    1.0020 C   0  0  0  0  0  0  0  0  0  0  0  0
    0.7130   -1.1220    0.4200 C   0  0  0  0  0  0  0  0  0  0  0  0
    1.9220    0.7070   -0.6390 C   0  0  0  0  0  0  0  0  0  0  0  0
    0.8200    2.8370   -1.0220 N   0  0  0  0  0  0  0  0  0  0  0  0
   -2.5960    1.4430    0.9300 C   0  0  0  0  0  0  0  0  0  0  0  0
   -1.9470    2.4520   -0.9670 O   0  0  0  0  0  0  0  0  0  0  0  0
   -2.6270    0.1180    1.4470 C   0  0  0  0  0  0  0  0  0  0  0  0
   -2.0410   -1.9390    0.7630 O   0  0  0  0  0  0  0  0  0  0  0  0
    1.9040   -0.6080   -0.1430 C   0  0  0  0  0  0  0  0  0  0  0  0
    0.7250   -2.3610    0.9610 N   0  0  0  0  0  0  0  0  0  0  0  0
    1.7900    3.5260   -1.6920 C   0  0  0  0  0  0  0  0  0  0  0  0
   -3.5480    2.3880    1.3790 C   0  0  0  0  0  0  0  0  0  0  0  0
   -3.6100   -0.2340    2.4010 C   0  0  0  0  0  0  0  0  0  0  0  0
    3.3810   -1.5430   -0.2050 S   0  0  0  0  0  0  0  0  0  0  0  0
    2.0510    4.8520   -1.2940 C   0  0  0  0  0  0  0  0  0  0  0  0
    2.4620    3.0150   -2.8240 C   0  0  0  0  0  0  0  0  0  0  0  0
   -4.5230    2.0230    2.3240 C   0  0  0  0  0  0  0  0  0  0  0  0
   -4.5540    0.7140    2.8350 C   0  0  0  0  0  0  0  0  0  0  0  0
    3.0960   -3.0040   -1.0060 O   0  0  0  0  0  0  0  0  0  0  0  0
    4.6490   -0.7500   -0.9950 O   0  0  0  0  0  0  0  0  0  0  0  0
    3.8810   -1.9100    1.3680 O   0  0  0  0  0  0  0  0  0  0  0  0
    3.0050    5.6300   -1.9750 C   0  0  0  0  0  0  0  0  0  0  0  0
    3.4140    3.7940   -3.5070 C   0  0  0  0  0  0  0  0  0  0  0  0
    3.6970    5.1200   -3.0960 C   0  0  0  0  0  0  0  0  0  0  0  0
    4.6120    5.9590   -3.6760 N   0  0  0  0  0  0  0  0  0  0  0  0
    5.1950    5.9200   -4.8670 C   0  0  0  0  0  0  0  0  0  0  0  0
    6.1350    6.9680   -5.1980 C   0  0  0  0  0  0  0  0  0  0  0  0
    4.9410    5.0730   -5.7130 O   0  0  0  0  0  0  0  0  0  0  0  0
    2.8070    1.0850   -0.9770 H   0  0  0  0  0  0  0  0  0  0  0  0
    0.0580    3.3760   -0.7630 H   0  0  0  0  0  0  0  0  0  0  0  0
   -0.0700   -2.7230    1.3800 H   0  0  0  0  0  0  0  0  0  0  0  0
    1.5370   -2.8910    0.9510 H   0  0  0  0  0  0  0  0  0  0  0  0
   -3.5370    3.3490    1.0250 H   0  0  0  0  0  0  0  0  0  0  0  0
   -3.6430   -1.1800    2.7910 H   0  0  0  0  0  0  0  0  0  0  0  0
    1.5570    5.2560   -0.4930 H   0  0  0  0  0  0  0  0  0  0  0  0
    2.2510    2.0750   -3.1680 H   0  0  0  0  0  0  0  0  0  0  0  0
   -5.2080    2.7120    2.6440 H   0  0  0  0  0  0  0  0  0  0  0  0
   -5.2610    0.4520    3.5250 H   0  0  0  0  0  0  0  0  0  0  0  0
    3.1840    6.5840   -1.6500 H   0  0  0  0  0  0  0  0  0  0  0  0
    3.9010    3.3710   -4.2960 H   0  0  0  0  0  0  0  0  0  0  0  0
    4.8460    6.7330   -3.1390 H   0  0  0  0  0  0  0  0  0  0  0  0
    6.5410    6.8450   -6.2060 H   0  0  0  0  0  0  0  0  0  0  0  0
    5.6390    7.9390   -5.1450 H   0  0  0  0  0  0  0  0  0  0  0  0
    6.9650    6.9540   -4.4900 H   0  0  0  0  0  0  0  0  0  0  0  0
  1  4  1  0  0  0  0
  1  2  2  0  0  0  0
  1  3  1  0  0  0  0
  2  5  1  0  0  0  0
  2  6  1  0  0  0  0
  3  7  2  0  0  0  0
  3  8  1  0  0  0  0
  4  9  1  0  0  0  0
  4 10  2  0  0  0  0
  5 11  1  0  0  0  0
  5 12  2  0  0  0  0
  6 14  1  0  0  0  0
  6 13  2  0  0  0  0
  7 13  1  0  0  0  0
  7 33  1  0  0  0  0
  8 34  1  0  0  0  0
  8 15  1  0  0  0  0
  9 16  2  0  0  0  0
  9 11  1  0  0  0  0
 11 17  2  0  0  0  0
 13 18  1  0  0  0  0
 14 35  1  0  0  0  0
 14 36  1  0  0  0  0
 15 19  2  0  0  0  0
 15 20  1  0  0  0  0
 16 21  1  0  0  0  0
 16 37  1  0  0  0  0
 17 38  1  0  0  0  0
 17 22  1  0  0  0  0
 18 25  2  0  0  0  0
 18 23  2  0  0  0  0
 18 24  1  0  0  0  0
 19 39  1  0  0  0  0
 19 26  1  0  0  0  0
 20 27  2  0  0  0  0
 20 40  1  0  0  0  0
 21 41  1  0  0  0  0
 21 22  2  0  0  0  0
 22 42  1  0  0  0  0
 26 43  1  0  0  0  0
 26 28  2  0  0  0  0
 27 28  1  0  0  0  0
 27 44  1  0  0  0  0
 28 29  1  0  0  0  0
 29 45  1  0  0  0  0
 29 30  1  0  0  0  0
 30 31  1  0  0  0  0
 30 32  2  0  0  0  0
 31 47  1  0  0  0  0
 31 48  1  0  0  0  0
 31 46  1  0  0  0  0
M  END
