decoy-533
 OpenBabel06062114513D

 40 42  0  0  0  0  0  0  0  0999 V2000
    3.0240    1.1820    0.6290 C   0  0  0  0  0  0  0  0  0  0  0  0
    2.5160    0.5660   -0.4600 N   0  0  0  0  0  0  0  0  0  0  0  0
    4.3190    0.7190    0.8680 C   0  0  0  0  0  0  0  0  0  0  0  0
    2.4780    2.1900    1.4540 C   0  0  0  0  0  0  0  0  0  0  0  0
    3.4740   -0.3120   -1.0690 C   0  0  0  0  0  0  0  0  0  0  0  0
    1.3560    0.8010   -1.0370 N   0  0  0  0  0  0  0  0  0  0  0  0
    4.7190   -0.2630   -0.1350 C   0  0  0  0  0  0  0  0  0  0  0  0
    5.0840    1.2060    1.9450 C   0  0  0  0  0  0  0  0  0  0  0  0
    3.2320    2.6860    2.5370 C   0  0  0  0  0  0  0  0  0  0  0  0
    2.9230   -1.7500   -1.2570 C   0  0  0  0  0  0  0  0  0  0  0  0
    0.1630    0.7450   -0.4620 C   0  0  0  0  0  0  0  0  0  0  0  0
    4.5290    2.1910    2.7850 C   0  0  0  0  0  0  0  0  0  0  0  0
   -0.9680    0.9400   -1.2320 C   0  0  0  0  0  0  0  0  0  0  0  0
    0.0310    0.4340    0.7150 O   0  0  0  0  0  0  0  0  0  0  0  0
   -1.9620   -0.0610   -1.3240 C   0  0  0  0  0  0  0  0  0  0  0  0
   -1.1480    2.1460   -1.9430 C   0  0  0  0  0  0  0  0  0  0  0  0
   -3.1210    0.1270   -2.1110 C   0  0  0  0  0  0  0  0  0  0  0  0
   -2.2970    2.3460   -2.7260 C   0  0  0  0  0  0  0  0  0  0  0  0
   -3.2860    1.3460   -2.8160 C   0  0  0  0  0  0  0  0  0  0  0  0
   -4.3030   -1.1580   -2.1750 S   0  0  0  0  0  0  0  0  0  0  0  0
   -4.6410    1.6760   -3.7840 Cl  0  0  0  0  0  0  0  0  0  0  0  0
   -5.7960   -0.6550   -1.5890 N   0  0  0  0  0  0  0  0  0  0  0  0
   -3.8870   -2.4910   -1.4130 O   0  0  0  0  0  0  0  0  0  0  0  0
   -4.5340   -1.5940   -3.6870 O   0  0  0  0  0  0  0  0  0  0  0  0
    1.5490    2.5720    1.2690 H   0  0  0  0  0  0  0  0  0  0  0  0
    3.7430    0.0880   -2.0530 H   0  0  0  0  0  0  0  0  0  0  0  0
    1.3640    0.8840   -2.0040 H   0  0  0  0  0  0  0  0  0  0  0  0
    5.6060    0.0810   -0.6730 H   0  0  0  0  0  0  0  0  0  0  0  0
    4.9310   -1.2200    0.3490 H   0  0  0  0  0  0  0  0  0  0  0  0
    6.0300    0.8560    2.1110 H   0  0  0  0  0  0  0  0  0  0  0  0
    2.8400    3.4120    3.1400 H   0  0  0  0  0  0  0  0  0  0  0  0
    2.5940   -2.1630   -0.3010 H   0  0  0  0  0  0  0  0  0  0  0  0
    3.6980   -2.3970   -1.6740 H   0  0  0  0  0  0  0  0  0  0  0  0
    2.0750   -1.7430   -1.9450 H   0  0  0  0  0  0  0  0  0  0  0  0
    5.0740    2.5570    3.5690 H   0  0  0  0  0  0  0  0  0  0  0  0
   -1.8350   -0.9400   -0.8150 H   0  0  0  0  0  0  0  0  0  0  0  0
   -0.4470    2.8910   -1.8920 H   0  0  0  0  0  0  0  0  0  0  0  0
   -2.4070    3.2290   -3.2300 H   0  0  0  0  0  0  0  0  0  0  0  0
   -6.5140   -0.4440   -2.2070 H   0  0  0  0  0  0  0  0  0  0  0  0
   -5.9390   -0.5710   -0.6330 H   0  0  0  0  0  0  0  0  0  0  0  0
  1  3  2  0  0  0  0
  1  4  1  0  0  0  0
  1  2  1  0  0  0  0
  2  5  1  0  0  0  0
  2  6  1  0  0  0  0
  3  8  1  0  0  0  0
  3  7  1  0  0  0  0
  4  9  2  0  0  0  0
  4 25  1  0  0  0  0
  5 26  1  0  0  0  0
  5  7  1  0  0  0  0
  5 10  1  0  0  0  0
  6 11  1  0  0  0  0
  6 27  1  0  0  0  0
  7 29  1  0  0  0  0
  7 28  1  0  0  0  0
  8 30  1  0  0  0  0
  8 12  2  0  0  0  0
  9 12  1  0  0  0  0
  9 31  1  0  0  0  0
 10 32  1  0  0  0  0
 10 33  1  0  0  0  0
 10 34  1  0  0  0  0
 11 14  2  0  0  0  0
 11 13  1  0  0  0  0
 12 35  1  0  0  0  0
 13 15  2  0  0  0  0
 13 16  1  0  0  0  0
 15 36  1  0  0  0  0
 15 17  1  0  0  0  0
 16 37  1  0  0  0  0
 16 18  2  0  0  0  0
 17 19  2  0  0  0  0
 17 20  1  0  0  0  0
 18 19  1  0  0  0  0
 18 38  1  0  0  0  0
 19 21  1  0  0  0  0
 20 22  1  0  0  0  0
 20 23  2  0  0  0  0
 20 24  2  0  0  0  0
 22 40  1  0  0  0  0
 22 39  1  0  0  0  0
M  END
