decoy-13
 OpenBabel06062114503D

 28 29  0  0  0  0  0  0  0  0999 V2000
    0.0180    1.4670   -0.1750 C   0  0  0  0  0  0  0  0  0  0  0  0
    0.1050   -0.0150    0.0720 C   0  0  0  0  0  0  0  0  0  0  0  0
    1.3870    2.0950   -0.1840 C   0  0  0  0  0  0  0  0  0  0  0  0
   -0.9610    1.8130   -1.3520 C   0  0  0  0  0  0  0  0  0  0  0  0
    0.9200   -0.8530   -0.7300 C   0  0  0  0  0  0  0  0  0  0  0  0
   -0.6160   -0.6120    1.1360 C   0  0  0  0  0  0  0  0  0  0  0  0
    1.9430    2.7730   -1.2990 C   0  0  0  0  0  0  0  0  0  0  0  0
    2.1770    2.0180    0.9930 C   0  0  0  0  0  0  0  0  0  0  0  0
   -0.6100    1.0650   -2.9110 Cl  0  0  0  0  0  0  0  0  0  0  0  0
   -2.6280    1.3770   -0.9700 Cl  0  0  0  0  0  0  0  0  0  0  0  0
    1.0010   -2.2360   -0.4880 C   0  0  0  0  0  0  0  0  0  0  0  0
   -0.5370   -1.9960    1.3800 C   0  0  0  0  0  0  0  0  0  0  0  0
    3.2310    3.3370   -1.2450 C   0  0  0  0  0  0  0  0  0  0  0  0
    3.4650    2.5790    1.0520 C   0  0  0  0  0  0  0  0  0  0  0  0
    0.2710   -2.8120    0.5680 C   0  0  0  0  0  0  0  0  0  0  0  0
    3.9970    3.2400   -0.0700 C   0  0  0  0  0  0  0  0  0  0  0  0
    0.3670   -4.4760    0.8610 Cl  0  0  0  0  0  0  0  0  0  0  0  0
    5.5470    3.9170   -0.0040 Cl  0  0  0  0  0  0  0  0  0  0  0  0
   -0.4630    1.9300    0.6940 H   0  0  0  0  0  0  0  0  0  0  0  0
   -0.9620    2.8950   -1.5030 H   0  0  0  0  0  0  0  0  0  0  0  0
    1.4710   -0.4580   -1.4940 H   0  0  0  0  0  0  0  0  0  0  0  0
   -1.2120   -0.0430    1.7420 H   0  0  0  0  0  0  0  0  0  0  0  0
    1.4210    2.8700   -2.1690 H   0  0  0  0  0  0  0  0  0  0  0  0
    1.8150    1.5460    1.8250 H   0  0  0  0  0  0  0  0  0  0  0  0
    1.5970   -2.8180   -1.0820 H   0  0  0  0  0  0  0  0  0  0  0  0
   -1.0710   -2.4030    2.1520 H   0  0  0  0  0  0  0  0  0  0  0  0
    3.6060    3.8180   -2.0660 H   0  0  0  0  0  0  0  0  0  0  0  0
    4.0110    2.5040    1.9140 H   0  0  0  0  0  0  0  0  0  0  0  0
  1  2  1  0  0  0  0
  1 19  1  0  0  0  0
  1  3  1  0  0  0  0
  1  4  1  0  0  0  0
  2  6  2  0  0  0  0
  2  5  1  0  0  0  0
  3  8  2  0  0  0  0
  3  7  1  0  0  0  0
  4 10  1  0  0  0  0
  4  9  1  0  0  0  0
  4 20  1  0  0  0  0
  5 11  2  0  0  0  0
  5 21  1  0  0  0  0
  6 12  1  0  0  0  0
  6 22  1  0  0  0  0
  7 13  2  0  0  0  0
  7 23  1  0  0  0  0
  8 14  1  0  0  0  0
  8 24  1  0  0  0  0
 11 15  1  0  0  0  0
 11 25  1  0  0  0  0
 12 26  1  0  0  0  0
 12 15  2  0  0  0  0
 13 16  1  0  0  0  0
 13 27  1  0  0  0  0
 14 28  1  0  0  0  0
 14 16  2  0  0  0  0
 15 17  1  0  0  0  0
 16 18  1  0  0  0  0
M  END
