decoy-721
 OpenBabel06062114513D

 71 74  0  0  0  0  0  0  0  0999 V2000
   -0.8360    2.0110    0.1440 C   0  0  0  0  0  0  0  0  0  0  0  0
   -0.9440    0.5030    0.5420 C   0  0  0  0  0  0  0  0  0  0  0  0
    0.6710    2.4180   -0.0120 C   0  0  0  0  0  0  0  0  0  0  0  0
   -1.5950    2.3240   -1.1800 C   0  0  0  0  0  0  0  0  0  0  0  0
   -0.2120    0.1210    1.8740 C   0  0  0  0  0  0  0  0  0  0  0  0
   -2.3390   -0.1290    0.6810 C   0  0  0  0  0  0  0  0  0  0  0  0
    0.8130    3.9470   -0.4340 C   0  0  0  0  0  0  0  0  0  0  0  0
    1.5340    1.9520    1.2140 C   0  0  0  0  0  0  0  0  0  0  0  0
   -1.2240    3.5670   -1.8290 C   0  0  0  0  0  0  0  0  0  0  0  0
   -0.5790   -1.4140    1.9610 C   0  0  0  0  0  0  0  0  0  0  0  0
    1.3020    0.4680    1.6320 C   0  0  0  0  0  0  0  0  0  0  0  0
   -0.7460    0.8860    3.1450 C   0  0  0  0  0  0  0  0  0  0  0  0
   -2.0640   -1.4390    1.4550 C   0  0  0  0  0  0  0  0  0  0  0  0
   -0.1300    4.3080   -1.5380 C   0  0  0  0  0  0  0  0  0  0  0  0
    2.2770    4.1950   -0.9670 C   0  0  0  0  0  0  0  0  0  0  0  0
    0.5310    4.9160    0.7720 C   0  0  0  0  0  0  0  0  0  0  0  0
   -0.3640   -2.2400    3.2950 C   0  0  0  0  0  0  0  0  0  0  0  0
    0.1090    5.4410   -2.2910 C   0  0  0  0  0  0  0  0  0  0  0  0
    2.4740    5.5900   -1.6270 C   0  0  0  0  0  0  0  0  0  0  0  0
   -0.7890   -3.7450    3.1250 C   0  0  0  0  0  0  0  0  0  0  0  0
    1.1040   -2.1590    3.8130 C   0  0  0  0  0  0  0  0  0  0  0  0
    1.3090    6.0400   -2.3670 C   0  0  0  0  0  0  0  0  0  0  0  0
   -0.9610   -4.5580    4.4420 C   0  0  0  0  0  0  0  0  0  0  0  0
   -1.5620   -5.9730    4.2050 C   0  0  0  0  0  0  0  0  0  0  0  0
   -1.8530   -6.7940    5.5020 C   0  0  0  0  0  0  0  0  0  0  0  0
   -2.6710   -8.0730    5.1680 C   0  0  0  0  0  0  0  0  0  0  0  0
   -0.5650   -7.1730    6.2860 C   0  0  0  0  0  0  0  0  0  0  0  0
   -1.3010    2.6100    0.9280 H   0  0  0  0  0  0  0  0  0  0  0  0
   -0.4640   -0.0470   -0.2830 H   0  0  0  0  0  0  0  0  0  0  0  0
    1.0460    1.8250   -0.8560 H   0  0  0  0  0  0  0  0  0  0  0  0
   -1.4250    1.5230   -1.9050 H   0  0  0  0  0  0  0  0  0  0  0  0
   -2.6670    2.3540   -0.9650 H   0  0  0  0  0  0  0  0  0  0  0  0
   -3.0060    0.5290    1.2440 H   0  0  0  0  0  0  0  0  0  0  0  0
   -2.7880   -0.3290   -0.2970 H   0  0  0  0  0  0  0  0  0  0  0  0
    2.5940    2.0640    0.9760 H   0  0  0  0  0  0  0  0  0  0  0  0
    1.3330    2.5840    2.0780 H   0  0  0  0  0  0  0  0  0  0  0  0
   -1.8050    3.8330   -2.5950 H   0  0  0  0  0  0  0  0  0  0  0  0
    0.0210   -1.9290    1.2010 H   0  0  0  0  0  0  0  0  0  0  0  0
    1.8910    0.2850    2.5300 H   0  0  0  0  0  0  0  0  0  0  0  0
    1.7100   -0.1780    0.8490 H   0  0  0  0  0  0  0  0  0  0  0  0
   -1.7820    0.6300    3.3670 H   0  0  0  0  0  0  0  0  0  0  0  0
   -0.1530    0.6350    4.0240 H   0  0  0  0  0  0  0  0  0  0  0  0
   -0.6990    1.9660    3.0310 H   0  0  0  0  0  0  0  0  0  0  0  0
   -2.7670   -1.5130    2.2900 H   0  0  0  0  0  0  0  0  0  0  0  0
   -2.2250   -2.2970    0.7960 H   0  0  0  0  0  0  0  0  0  0  0  0
    3.0100    4.0910   -0.1630 H   0  0  0  0  0  0  0  0  0  0  0  0
    2.5190    3.4410   -1.7230 H   0  0  0  0  0  0  0  0  0  0  0  0
   -0.4420    4.7210    1.2220 H   0  0  0  0  0  0  0  0  0  0  0  0
    1.2920    4.8160    1.5460 H   0  0  0  0  0  0  0  0  0  0  0  0
    0.5350    5.9620    0.4610 H   0  0  0  0  0  0  0  0  0  0  0  0
   -1.0060   -1.8060    4.0660 H   0  0  0  0  0  0  0  0  0  0  0  0
   -0.6330    5.8520   -2.8150 H   0  0  0  0  0  0  0  0  0  0  0  0
    2.6970    6.3320   -0.8570 H   0  0  0  0  0  0  0  0  0  0  0  0
    3.3310    5.5450   -2.3040 H   0  0  0  0  0  0  0  0  0  0  0  0
   -1.7510   -3.7910    2.6140 H   0  0  0  0  0  0  0  0  0  0  0  0
   -0.0620   -4.2540    2.4850 H   0  0  0  0  0  0  0  0  0  0  0  0
    1.3350   -1.1590    4.1690 H   0  0  0  0  0  0  0  0  0  0  0  0
    1.2730   -2.8210    4.6590 H   0  0  0  0  0  0  0  0  0  0  0  0
    1.8070   -2.4270    3.0210 H   0  0  0  0  0  0  0  0  0  0  0  0
    1.3950    6.8700   -2.9090 H   0  0  0  0  0  0  0  0  0  0  0  0
    0.0100   -4.6740    4.9220 H   0  0  0  0  0  0  0  0  0  0  0  0
   -1.6160   -4.0040    5.1200 H   0  0  0  0  0  0  0  0  0  0  0  0
   -2.5030   -5.8470    3.6610 H   0  0  0  0  0  0  0  0  0  0  0  0
   -0.8850   -6.5440    3.5620 H   0  0  0  0  0  0  0  0  0  0  0  0
   -2.4750   -6.1790    6.1620 H   0  0  0  0  0  0  0  0  0  0  0  0
   -2.9160   -8.6200    6.0810 H   0  0  0  0  0  0  0  0  0  0  0  0
   -3.6090   -7.8090    4.6740 H   0  0  0  0  0  0  0  0  0  0  0  0
   -2.1030   -8.7320    4.5070 H   0  0  0  0  0  0  0  0  0  0  0  0
   -0.0570   -6.2800    6.6520 H   0  0  0  0  0  0  0  0  0  0  0  0
   -0.8140   -7.7880    7.1540 H   0  0  0  0  0  0  0  0  0  0  0  0
    0.1230   -7.7330    5.6490 H   0  0  0  0  0  0  0  0  0  0  0  0
  1  3  1  0  0  0  0
  1 28  1  0  0  0  0
  1  2  1  0  0  0  0
  1  4  1  0  0  0  0
  2  6  1  0  0  0  0
  2  5  1  0  0  0  0
  2 29  1  0  0  0  0
  3  7  1  0  0  0  0
  3  8  1  0  0  0  0
  3 30  1  0  0  0  0
  4 32  1  0  0  0  0
  4  9  1  0  0  0  0
  4 31  1  0  0  0  0
  5 12  1  0  0  0  0
  5 10  1  0  0  0  0
  5 11  1  0  0  0  0
  6 33  1  0  0  0  0
  6 13  1  0  0  0  0
  6 34  1  0  0  0  0
  7 16  1  0  0  0  0
  7 14  1  0  0  0  0
  7 15  1  0  0  0  0
  8 11  1  0  0  0  0
  8 36  1  0  0  0  0
  8 35  1  0  0  0  0
  9 14  2  0  0  0  0
  9 37  1  0  0  0  0
 10 17  1  0  0  0  0
 10 13  1  0  0  0  0
 10 38  1  0  0  0  0
 11 39  1  0  0  0  0
 11 40  1  0  0  0  0
 12 41  1  0  0  0  0
 12 42  1  0  0  0  0
 12 43  1  0  0  0  0
 13 44  1  0  0  0  0
 13 45  1  0  0  0  0
 14 18  1  0  0  0  0
 15 46  1  0  0  0  0
 15 19  1  0  0  0  0
 15 47  1  0  0  0  0
 16 48  1  0  0  0  0
 16 49  1  0  0  0  0
 16 50  1  0  0  0  0
 17 21  1  0  0  0  0
 17 51  1  0  0  0  0
 17 20  1  0  0  0  0
 18 22  2  0  0  0  0
 18 52  1  0  0  0  0
 19 53  1  0  0  0  0
 19 22  1  0  0  0  0
 19 54  1  0  0  0  0
 20 23  1  0  0  0  0
 20 55  1  0  0  0  0
 20 56  1  0  0  0  0
 21 57  1  0  0  0  0
 21 58  1  0  0  0  0
 21 59  1  0  0  0  0
 22 60  1  0  0  0  0
 23 61  1  0  0  0  0
 23 62  1  0  0  0  0
 23 24  1  0  0  0  0
 24 25  1  0  0  0  0
 24 63  1  0  0  0  0
 24 64  1  0  0  0  0
 25 65  1  0  0  0  0
 25 27  1  0  0  0  0
 25 26  1  0  0  0  0
 26 66  1  0  0  0  0
 26 67  1  0  0  0  0
 26 68  1  0  0  0  0
 27 69  1  0  0  0  0
 27 70  1  0  0  0  0
 27 71  1  0  0  0  0
M  END
