decoy-363
 OpenBabel06062114513D

 40 42  0  0  0  0  0  0  0  0999 V2000
  -17.7570    1.0740    1.4940 N   0  0  0  0  0  0  0  0  0  0  0  0
  -18.9420    0.9010    2.2410 C   0  0  0  0  0  0  0  0  0  0  0  0
  -18.3270    1.7630    0.5280 C   0  0  0  0  0  0  0  0  0  0  0  0
  -16.8080    0.0060    1.4020 C   0  0  0  0  0  0  0  0  0  0  0  0
  -19.6420    1.7000    1.1040 C   0  0  0  0  0  0  0  0  0  0  0  0
  -19.1440   -0.8880    2.3810 S   0  0  0  0  0  0  0  0  0  0  0  0
  -18.0340    1.7400   -0.6600 O   0  0  0  0  0  0  0  0  0  0  0  0
  -17.3400   -1.1060    2.3760 C   0  0  0  0  0  0  0  0  0  0  0  0
  -15.4250    0.4690    1.6560 C   0  0  0  0  0  0  0  0  0  0  0  0
  -20.6110    1.0040    0.3160 N   0  0  0  0  0  0  0  0  0  0  0  0
  -16.8390   -0.9650    3.8500 C   0  0  0  0  0  0  0  0  0  0  0  0
  -17.0250   -2.5400    1.8570 C   0  0  0  0  0  0  0  0  0  0  0  0
  -14.3880   -0.3820    1.4900 O   0  0  0  0  0  0  0  0  0  0  0  0
  -15.1490    1.7440    2.0140 O   0  0  0  0  0  0  0  0  0  0  0  0
  -21.8470    0.7220    0.7030 C   0  0  0  0  0  0  0  0  0  0  0  0
  -22.7420    0.0060   -0.1880 C   0  0  0  0  0  0  0  0  0  0  0  0
  -22.2520    1.0400    1.8150 O   0  0  0  0  0  0  0  0  0  0  0  0
  -23.9180    0.8280   -0.5820 C   0  0  0  0  0  0  0  0  0  0  0  0
  -23.7480    1.9750   -1.3950 C   0  0  0  0  0  0  0  0  0  0  0  0
  -25.2270    0.4820   -0.1660 C   0  0  0  0  0  0  0  0  0  0  0  0
  -24.8540    2.7580   -1.7760 C   0  0  0  0  0  0  0  0  0  0  0  0
  -26.3330    1.2650   -0.5470 C   0  0  0  0  0  0  0  0  0  0  0  0
  -26.1470    2.4030   -1.3510 C   0  0  0  0  0  0  0  0  0  0  0  0
  -18.9080    1.4200    3.2030 H   0  0  0  0  0  0  0  0  0  0  0  0
  -16.8200   -0.3750    0.3750 H   0  0  0  0  0  0  0  0  0  0  0  0
  -19.9760    2.6930    1.4210 H   0  0  0  0  0  0  0  0  0  0  0  0
  -20.3460    0.7270   -0.5760 H   0  0  0  0  0  0  0  0  0  0  0  0
  -17.0080    0.0440    4.2280 H   0  0  0  0  0  0  0  0  0  0  0  0
  -15.7700   -1.1750    3.9150 H   0  0  0  0  0  0  0  0  0  0  0  0
  -17.3590   -1.6670    4.5050 H   0  0  0  0  0  0  0  0  0  0  0  0
  -17.4560   -3.2950    2.5180 H   0  0  0  0  0  0  0  0  0  0  0  0
  -15.9460   -2.7010    1.8110 H   0  0  0  0  0  0  0  0  0  0  0  0
  -17.4360   -2.6910    0.8570 H   0  0  0  0  0  0  0  0  0  0  0  0
  -22.2220   -0.3030   -1.1000 H   0  0  0  0  0  0  0  0  0  0  0  0
  -23.0540   -0.9120    0.3180 H   0  0  0  0  0  0  0  0  0  0  0  0
  -22.8150    2.2470   -1.7140 H   0  0  0  0  0  0  0  0  0  0  0  0
  -25.3840   -0.3410    0.4210 H   0  0  0  0  0  0  0  0  0  0  0  0
  -24.7180    3.5850   -2.3620 H   0  0  0  0  0  0  0  0  0  0  0  0
  -27.2730    1.0060   -0.2390 H   0  0  0  0  0  0  0  0  0  0  0  0
  -26.9500    2.9710   -1.6280 H   0  0  0  0  0  0  0  0  0  0  0  0
  1  2  1  0  0  0  0
  1  3  1  0  0  0  0
  1  4  1  0  0  0  0
  2  5  1  0  0  0  0
  2  6  1  0  0  0  0
  2 24  1  0  0  0  0
  3  5  1  0  0  0  0
  3  7  2  0  0  0  0
  4 25  1  0  0  0  0
  4  9  1  0  0  0  0
  4  8  1  0  0  0  0
  5 26  1  0  0  0  0
  5 10  1  0  0  0  0
  6  8  1  0  0  0  0
  8 11  1  0  0  0  0
  8 12  1  0  0  0  0
  9 14  1  0  0  0  0
  9 13  2  0  0  0  0
 10 15  1  0  0  0  0
 10 27  1  0  0  0  0
 11 29  1  0  0  0  0
 11 28  1  0  0  0  0
 11 30  1  0  0  0  0
 12 31  1  0  0  0  0
 12 32  1  0  0  0  0
 12 33  1  0  0  0  0
 15 17  2  0  0  0  0
 15 16  1  0  0  0  0
 16 35  1  0  0  0  0
 16 18  1  0  0  0  0
 16 34  1  0  0  0  0
 18 20  2  0  0  0  0
 18 19  1  0  0  0  0
 19 21  2  0  0  0  0
 19 36  1  0  0  0  0
 20 37  1  0  0  0  0
 20 22  1  0  0  0  0
 21 23  1  0  0  0  0
 21 38  1  0  0  0  0
 22 39  1  0  0  0  0
 22 23  2  0  0  0  0
 23 40  1  0  0  0  0
M  END
