decoy-847
 OpenBabel06062114513D

 32 32  0  0  0  0  0  0  0  0999 V2000
    0.4260   -1.0360    1.1730 C   0  0  0  0  0  0  0  0  0  0  0  0
    0.4370    0.2420    0.4200 C   0  0  0  0  0  0  0  0  0  0  0  0
   -0.4600   -0.9090    2.3570 C   0  0  0  0  0  0  0  0  0  0  0  0
   -0.0760   -2.2110    0.2440 C   0  0  0  0  0  0  0  0  0  0  0  0
    1.8750   -1.3170    1.7400 C   0  0  0  0  0  0  0  0  0  0  0  0
   -0.2390    1.3120    0.8180 N   0  0  0  0  0  0  0  0  0  0  0  0
    1.0660    0.3570   -0.6230 O   0  0  0  0  0  0  0  0  0  0  0  0
   -1.0800    0.2220    2.6680 N   0  0  0  0  0  0  0  0  0  0  0  0
   -0.6400   -1.8520    3.1160 O   0  0  0  0  0  0  0  0  0  0  0  0
   -1.4440   -2.0760   -0.5170 C   0  0  0  0  0  0  0  0  0  0  0  0
    2.9560   -1.4600    0.7690 C   0  0  0  0  0  0  0  0  0  0  0  0
   -0.9740    1.3080    1.9180 C   0  0  0  0  0  0  0  0  0  0  0  0
   -2.6970   -2.1260    0.4020 C   0  0  0  0  0  0  0  0  0  0  0  0
   -1.5640   -3.1760   -1.6130 C   0  0  0  0  0  0  0  0  0  0  0  0
    3.9840   -0.6090    0.6580 C   0  0  0  0  0  0  0  0  0  0  0  0
   -1.5740    2.3210    2.2420 O   0  0  0  0  0  0  0  0  0  0  0  0
    0.6870   -2.3570   -0.5240 H   0  0  0  0  0  0  0  0  0  0  0  0
   -0.0980   -3.1390    0.8230 H   0  0  0  0  0  0  0  0  0  0  0  0
    2.1300   -0.5230    2.4530 H   0  0  0  0  0  0  0  0  0  0  0  0
    1.8630   -2.2480    2.3150 H   0  0  0  0  0  0  0  0  0  0  0  0
   -0.1930    2.1230    0.2860 H   0  0  0  0  0  0  0  0  0  0  0  0
   -1.6370    0.2520    3.4630 H   0  0  0  0  0  0  0  0  0  0  0  0
   -1.4580   -1.1150   -1.0390 H   0  0  0  0  0  0  0  0  0  0  0  0
    2.9420   -2.2490    0.1650 H   0  0  0  0  0  0  0  0  0  0  0  0
   -2.6620   -3.0000    1.0550 H   0  0  0  0  0  0  0  0  0  0  0  0
   -3.6120   -2.1760   -0.1920 H   0  0  0  0  0  0  0  0  0  0  0  0
   -2.7650   -1.2290    1.0140 H   0  0  0  0  0  0  0  0  0  0  0  0
   -0.7310   -3.1090   -2.3160 H   0  0  0  0  0  0  0  0  0  0  0  0
   -2.4880   -3.0540   -2.1820 H   0  0  0  0  0  0  0  0  0  0  0  0
   -1.5600   -4.1700   -1.1610 H   0  0  0  0  0  0  0  0  0  0  0  0
    4.6930   -0.7690   -0.0190 H   0  0  0  0  0  0  0  0  0  0  0  0
    4.0540    0.1940    1.2350 H   0  0  0  0  0  0  0  0  0  0  0  0
  1  5  1  0  0  0  0
  1  3  1  0  0  0  0
  1  2  1  0  0  0  0
  1  4  1  0  0  0  0
  2  6  1  0  0  0  0
  2  7  2  0  0  0  0
  3  8  1  0  0  0  0
  3  9  2  0  0  0  0
  4 18  1  0  0  0  0
  4 10  1  0  0  0  0
  4 17  1  0  0  0  0
  5 20  1  0  0  0  0
  5 19  1  0  0  0  0
  5 11  1  0  0  0  0
  6 12  1  0  0  0  0
  6 21  1  0  0  0  0
  8 22  1  0  0  0  0
  8 12  1  0  0  0  0
 10 13  1  0  0  0  0
 10 14  1  0  0  0  0
 10 23  1  0  0  0  0
 11 15  2  0  0  0  0
 11 24  1  0  0  0  0
 12 16  2  0  0  0  0
 13 27  1  0  0  0  0
 13 25  1  0  0  0  0
 13 26  1  0  0  0  0
 14 30  1  0  0  0  0
 14 28  1  0  0  0  0
 14 29  1  0  0  0  0
 15 32  1  0  0  0  0
 15 31  1  0  0  0  0
M  END
