decoy-179
 OpenBabel06062114503D

 40 39  0  0  0  0  0  0  0  0999 V2000
    0.1100    1.1620    0.0020 N   0  0  0  0  0  0  0  0  0  0  0  0
    0.0300   -0.1620   -0.0080 C   0  0  0  0  0  0  0  0  0  0  0  0
    1.3190    1.9240   -0.0050 C   0  0  0  0  0  0  0  0  0  0  0  0
   -1.2850   -0.7800    0.0030 C   0  0  0  0  0  0  0  0  0  0  0  0
    1.0460   -0.8460   -0.0150 O   0  0  0  0  0  0  0  0  0  0  0  0
    1.0060    3.4400    0.0070 C   0  0  0  0  0  0  0  0  0  0  0  0
   -2.1440   -0.4120   -1.4890 Cl  0  0  0  0  0  0  0  0  0  0  0  0
   -1.2780   -2.5360    0.1760 Cl  0  0  0  0  0  0  0  0  0  0  0  0
    2.2880    4.3140   -0.0010 C   0  0  0  0  0  0  0  0  0  0  0  0
    1.9740    5.8340    0.0110 C   0  0  0  0  0  0  0  0  0  0  0  0
    3.2560    6.7080    0.0030 C   0  0  0  0  0  0  0  0  0  0  0  0
    2.9420    8.2280    0.0140 C   0  0  0  0  0  0  0  0  0  0  0  0
    4.2230    9.1020    0.0060 C   0  0  0  0  0  0  0  0  0  0  0  0
    3.9100   10.6180    0.0180 C   0  0  0  0  0  0  0  0  0  0  0  0
    5.1190   11.3800    0.0090 N   0  0  0  0  0  0  0  0  0  0  0  0
    5.2000   12.7040    0.0120 C   0  0  0  0  0  0  0  0  0  0  0  0
    6.5150   13.3220    0.0030 C   0  0  0  0  0  0  0  0  0  0  0  0
    4.1840   13.3890    0.0340 O   0  0  0  0  0  0  0  0  0  0  0  0
    7.3440   12.9710   -1.5100 Cl  0  0  0  0  0  0  0  0  0  0  0  0
    6.5120   15.0760    0.1960 Cl  0  0  0  0  0  0  0  0  0  0  0  0
   -0.7250    1.6560    0.0140 H   0  0  0  0  0  0  0  0  0  0  0  0
    1.9130    1.6680    0.8770 H   0  0  0  0  0  0  0  0  0  0  0  0
    1.8950    1.6790   -0.9020 H   0  0  0  0  0  0  0  0  0  0  0  0
   -1.8600   -0.3770    0.8390 H   0  0  0  0  0  0  0  0  0  0  0  0
    0.4020    3.6830   -0.8710 H   0  0  0  0  0  0  0  0  0  0  0  0
    0.4200    3.6730    0.9000 H   0  0  0  0  0  0  0  0  0  0  0  0
    2.8920    4.0690    0.8770 H   0  0  0  0  0  0  0  0  0  0  0  0
    2.8740    4.0790   -0.8940 H   0  0  0  0  0  0  0  0  0  0  0  0
    1.3700    6.0790   -0.8680 H   0  0  0  0  0  0  0  0  0  0  0  0
    1.3880    6.0690    0.9040 H   0  0  0  0  0  0  0  0  0  0  0  0
    3.8600    6.4630    0.8810 H   0  0  0  0  0  0  0  0  0  0  0  0
    3.8420    6.4730   -0.8910 H   0  0  0  0  0  0  0  0  0  0  0  0
    2.3380    8.4730   -0.8640 H   0  0  0  0  0  0  0  0  0  0  0  0
    2.3560    8.4630    0.9080 H   0  0  0  0  0  0  0  0  0  0  0  0
    4.8280    8.8590    0.8850 H   0  0  0  0  0  0  0  0  0  0  0  0
    4.8100    8.8690   -0.8870 H   0  0  0  0  0  0  0  0  0  0  0  0
    3.3160   10.8730   -0.8640 H   0  0  0  0  0  0  0  0  0  0  0  0
    3.3350   10.8640    0.9150 H   0  0  0  0  0  0  0  0  0  0  0  0
    5.9550   10.8860   -0.0020 H   0  0  0  0  0  0  0  0  0  0  0  0
    7.1070   12.9100    0.8230 H   0  0  0  0  0  0  0  0  0  0  0  0
  1 21  1  0  0  0  0
  1  2  1  0  0  0  0
  1  3  1  0  0  0  0
  2  4  1  0  0  0  0
  2  5  2  0  0  0  0
  3  6  1  0  0  0  0
  3 22  1  0  0  0  0
  3 23  1  0  0  0  0
  4  8  1  0  0  0  0
  4 24  1  0  0  0  0
  4  7  1  0  0  0  0
  6 26  1  0  0  0  0
  6  9  1  0  0  0  0
  6 25  1  0  0  0  0
  9 10  1  0  0  0  0
  9 27  1  0  0  0  0
  9 28  1  0  0  0  0
 10 30  1  0  0  0  0
 10 11  1  0  0  0  0
 10 29  1  0  0  0  0
 11 12  1  0  0  0  0
 11 31  1  0  0  0  0
 11 32  1  0  0  0  0
 12 34  1  0  0  0  0
 12 13  1  0  0  0  0
 12 33  1  0  0  0  0
 13 14  1  0  0  0  0
 13 35  1  0  0  0  0
 13 36  1  0  0  0  0
 14 38  1  0  0  0  0
 14 15  1  0  0  0  0
 14 37  1  0  0  0  0
 15 16  1  0  0  0  0
 15 39  1  0  0  0  0
 16 18  2  0  0  0  0
 16 17  1  0  0  0  0
 17 20  1  0  0  0  0
 17 40  1  0  0  0  0
 17 19  1  0  0  0  0
M  END
