decoy-43
 OpenBabel06062114503D

 58 61  0  0  0  0  0  0  0  0999 V2000
    0.2680    2.0470    0.4640 P   0  0  0  0  0  0  0  0  0  0  0  0
   -0.2840    0.5280    0.5060 C   0  0  0  0  0  0  0  0  0  0  0  0
    1.2980    2.2480   -0.7730 C   0  0  0  0  0  0  0  0  0  0  0  0
   -1.0720    2.9830    0.0710 C   0  0  0  0  0  0  0  0  0  0  0  0
   -0.0310   -0.2240    1.6790 C   0  0  0  0  0  0  0  0  0  0  0  0
   -1.0300   -0.0810   -0.5360 C   0  0  0  0  0  0  0  0  0  0  0  0
    1.7670    1.2020   -1.6130 C   0  0  0  0  0  0  0  0  0  0  0  0
    1.8550    3.5390   -0.9700 C   0  0  0  0  0  0  0  0  0  0  0  0
   -2.2200    2.9160    1.1180 C   0  0  0  0  0  0  0  0  0  0  0  0
   -0.5000   -1.5450    1.8030 C   0  0  0  0  0  0  0  0  0  0  0  0
   -1.4970   -1.4020   -0.4110 C   0  0  0  0  0  0  0  0  0  0  0  0
    2.6920    1.4510   -2.6440 C   0  0  0  0  0  0  0  0  0  0  0  0
    2.7800    3.7900   -2.0010 C   0  0  0  0  0  0  0  0  0  0  0  0
   -3.4010    3.8610    0.7670 C   0  0  0  0  0  0  0  0  0  0  0  0
   -1.2330   -2.1340    0.7590 C   0  0  0  0  0  0  0  0  0  0  0  0
    3.1930    2.7470   -2.8440 C   0  0  0  0  0  0  0  0  0  0  0  0
   -4.5510    3.7820    1.8080 C   0  0  0  0  0  0  0  0  0  0  0  0
   -5.8360    4.7910    1.4260 P   0  0  0  0  0  0  0  0  0  0  0  0
   -6.9320    4.4580    2.5610 C   0  0  0  0  0  0  0  0  0  0  0  0
   -5.5180    6.3510    1.7050 C   0  0  0  0  0  0  0  0  0  0  0  0
   -6.7120    4.6440    3.9510 C   0  0  0  0  0  0  0  0  0  0  0  0
   -8.1870    3.9570    2.1390 C   0  0  0  0  0  0  0  0  0  0  0  0
   -6.4510    7.2970    1.2070 C   0  0  0  0  0  0  0  0  0  0  0  0
   -4.3780    6.8440    2.3930 C   0  0  0  0  0  0  0  0  0  0  0  0
   -7.7170    4.3360    4.8860 C   0  0  0  0  0  0  0  0  0  0  0  0
   -9.1900    3.6490    3.0770 C   0  0  0  0  0  0  0  0  0  0  0  0
   -6.2580    8.6780    1.3950 C   0  0  0  0  0  0  0  0  0  0  0  0
   -4.1860    8.2250    2.5820 C   0  0  0  0  0  0  0  0  0  0  0  0
   -8.9560    3.8380    4.4490 C   0  0  0  0  0  0  0  0  0  0  0  0
   -5.1250    9.1430    2.0840 C   0  0  0  0  0  0  0  0  0  0  0  0
   -0.7490    4.0240    0.0160 H   0  0  0  0  0  0  0  0  0  0  0  0
   -1.4570    2.7120   -0.9140 H   0  0  0  0  0  0  0  0  0  0  0  0
    0.4970    0.1760    2.4610 H   0  0  0  0  0  0  0  0  0  0  0  0
   -1.2290    0.4220   -1.4040 H   0  0  0  0  0  0  0  0  0  0  0  0
    1.4640    0.2370   -1.4830 H   0  0  0  0  0  0  0  0  0  0  0  0
    1.6020    4.3230   -0.3620 H   0  0  0  0  0  0  0  0  0  0  0  0
   -2.6040    1.8940    1.1800 H   0  0  0  0  0  0  0  0  0  0  0  0
   -1.8280    3.1930    2.1020 H   0  0  0  0  0  0  0  0  0  0  0  0
   -0.3100   -2.0770    2.6550 H   0  0  0  0  0  0  0  0  0  0  0  0
   -2.0290   -1.8310   -1.1720 H   0  0  0  0  0  0  0  0  0  0  0  0
    3.0100    0.6840   -3.2420 H   0  0  0  0  0  0  0  0  0  0  0  0
    3.1590    4.7310   -2.1310 H   0  0  0  0  0  0  0  0  0  0  0  0
   -3.0220    4.8850    0.7080 H   0  0  0  0  0  0  0  0  0  0  0  0
   -3.7880    3.5860   -0.2200 H   0  0  0  0  0  0  0  0  0  0  0  0
   -1.5740   -3.0940    0.8500 H   0  0  0  0  0  0  0  0  0  0  0  0
    3.8680    2.9260   -3.5900 H   0  0  0  0  0  0  0  0  0  0  0  0
   -4.9300    2.7570    1.8060 H   0  0  0  0  0  0  0  0  0  0  0  0
   -4.1650    3.9820    2.8080 H   0  0  0  0  0  0  0  0  0  0  0  0
   -5.8220    5.0110    4.2980 H   0  0  0  0  0  0  0  0  0  0  0  0
   -8.3900    3.8080    1.1460 H   0  0  0  0  0  0  0  0  0  0  0  0
   -7.2880    6.9960    0.6980 H   0  0  0  0  0  0  0  0  0  0  0  0
   -3.6730    6.2150    2.7770 H   0  0  0  0  0  0  0  0  0  0  0  0
   -7.5470    4.4760    5.8840 H   0  0  0  0  0  0  0  0  0  0  0  0
  -10.0930    3.2870    2.7590 H   0  0  0  0  0  0  0  0  0  0  0  0
   -6.9420    9.3450    1.0310 H   0  0  0  0  0  0  0  0  0  0  0  0
   -3.3610    8.5630    3.0830 H   0  0  0  0  0  0  0  0  0  0  0  0
   -9.6870    3.6140    5.1290 H   0  0  0  0  0  0  0  0  0  0  0  0
   -4.9850   10.1460    2.2210 H   0  0  0  0  0  0  0  0  0  0  0  0
  1  2  1  0  0  0  0
  1  3  1  0  0  0  0
  1  4  1  0  0  0  0
  2  5  2  0  0  0  0
  2  6  1  0  0  0  0
  3  7  2  0  0  0  0
  3  8  1  0  0  0  0
  4  9  1  0  0  0  0
  4 31  1  0  0  0  0
  4 32  1  0  0  0  0
  5 10  1  0  0  0  0
  5 33  1  0  0  0  0
  6 11  2  0  0  0  0
  6 34  1  0  0  0  0
  7 35  1  0  0  0  0
  7 12  1  0  0  0  0
  8 36  1  0  0  0  0
  8 13  2  0  0  0  0
  9 37  1  0  0  0  0
  9 38  1  0  0  0  0
  9 14  1  0  0  0  0
 10 39  1  0  0  0  0
 10 15  2  0  0  0  0
 11 15  1  0  0  0  0
 11 40  1  0  0  0  0
 12 16  2  0  0  0  0
 12 41  1  0  0  0  0
 13 16  1  0  0  0  0
 13 42  1  0  0  0  0
 14 17  1  0  0  0  0
 14 43  1  0  0  0  0
 14 44  1  0  0  0  0
 15 45  1  0  0  0  0
 16 46  1  0  0  0  0
 17 48  1  0  0  0  0
 17 18  1  0  0  0  0
 17 47  1  0  0  0  0
 18 20  1  0  0  0  0
 18 19  1  0  0  0  0
 19 21  2  0  0  0  0
 19 22  1  0  0  0  0
 20 24  2  0  0  0  0
 20 23  1  0  0  0  0
 21 49  1  0  0  0  0
 21 25  1  0  0  0  0
 22 26  2  0  0  0  0
 22 50  1  0  0  0  0
 23 27  2  0  0  0  0
 23 51  1  0  0  0  0
 24 28  1  0  0  0  0
 24 52  1  0  0  0  0
 25 53  1  0  0  0  0
 25 29  2  0  0  0  0
 26 29  1  0  0  0  0
 26 54  1  0  0  0  0
 27 30  1  0  0  0  0
 27 55  1  0  0  0  0
 28 56  1  0  0  0  0
 28 30  2  0  0  0  0
 29 57  1  0  0  0  0
 30 58  1  0  0  0  0
M  END
