decoy-496
 OpenBabel06062114513D

 72 73  0  0  0  0  0  0  0  0999 V2000
    4.1640   -2.7310    0.6660 C   0  0  0  0  0  0  0  0  0  0  0  0
    5.4110   -1.9410    0.2650 C   0  0  0  0  0  0  0  0  0  0  0  0
    2.9540   -2.1380   -0.1610 C   0  0  0  0  0  0  0  0  0  0  0  0
    3.8590   -2.8070    2.2340 C   0  0  0  0  0  0  0  0  0  0  0  0
    4.3200   -4.0510    0.2530 C   0  0  0  0  0  0  0  0  0  0  0  0
    5.9570   -0.9040    1.0700 C   0  0  0  0  0  0  0  0  0  0  0  0
    6.0160   -2.1170   -1.0140 C   0  0  0  0  0  0  0  0  0  0  0  0
    2.5370   -0.6750    0.1770 C   0  0  0  0  0  0  0  0  0  0  0  0
    5.0130   -3.4400    3.0820 C   0  0  0  0  0  0  0  0  0  0  0  0
    2.5230   -3.5140    2.6350 C   0  0  0  0  0  0  0  0  0  0  0  0
    4.4490   -5.1410   -0.0870 N   0  0  0  0  0  0  0  0  0  0  0  0
    7.0600   -0.1280    0.6590 C   0  0  0  0  0  0  0  0  0  0  0  0
    7.1310   -1.3670   -1.4270 C   0  0  0  0  0  0  0  0  0  0  0  0
    1.3990   -0.1380   -0.7350 C   0  0  0  0  0  0  0  0  0  0  0  0
    7.6770   -0.3880   -0.5810 C   0  0  0  0  0  0  0  0  0  0  0  0
    7.5540    0.8470    1.4850 O   0  0  0  0  0  0  0  0  0  0  0  0
    0.8030    1.1730   -0.2950 C   0  0  0  0  0  0  0  0  0  0  0  0
    8.7450    0.3580   -1.0010 O   0  0  0  0  0  0  0  0  0  0  0  0
    6.9260    2.1260    1.2890 C   0  0  0  0  0  0  0  0  0  0  0  0
   -0.4940    1.4650   -1.0000 C   0  0  0  0  0  0  0  0  0  0  0  0
    1.7740    2.3090   -0.3830 C   0  0  0  0  0  0  0  0  0  0  0  0
   10.0120   -0.2120   -0.6320 C   0  0  0  0  0  0  0  0  0  0  0  0
   -1.3750    2.5380   -0.2990 C   0  0  0  0  0  0  0  0  0  0  0  0
   -2.7490    2.6200   -0.8680 C   0  0  0  0  0  0  0  0  0  0  0  0
   -3.8770    2.2070   -0.1190 C   0  0  0  0  0  0  0  0  0  0  0  0
   -2.9520    3.1190   -2.1750 C   0  0  0  0  0  0  0  0  0  0  0  0
   -5.1750    2.2760   -0.6650 C   0  0  0  0  0  0  0  0  0  0  0  0
   -4.2470    3.2090   -2.7180 C   0  0  0  0  0  0  0  0  0  0  0  0
   -5.3640    2.8090   -1.9600 C   0  0  0  0  0  0  0  0  0  0  0  0
   -6.2500    1.8840    0.0870 O   0  0  0  0  0  0  0  0  0  0  0  0
   -6.6170    2.8820   -2.5060 O   0  0  0  0  0  0  0  0  0  0  0  0
   -6.5780    0.4940   -0.0750 C   0  0  0  0  0  0  0  0  0  0  0  0
   -7.2740    4.1360   -2.2530 C   0  0  0  0  0  0  0  0  0  0  0  0
    3.1930   -2.1660   -1.2300 H   0  0  0  0  0  0  0  0  0  0  0  0
    2.0700   -2.7720   -0.0420 H   0  0  0  0  0  0  0  0  0  0  0  0
    3.7390   -1.7870    2.6030 H   0  0  0  0  0  0  0  0  0  0  0  0
    5.5460   -0.6710    1.9720 H   0  0  0  0  0  0  0  0  0  0  0  0
    5.6430   -2.8040   -1.6730 H   0  0  0  0  0  0  0  0  0  0  0  0
    2.1970   -0.6200    1.2130 H   0  0  0  0  0  0  0  0  0  0  0  0
    3.4100   -0.0320    0.0680 H   0  0  0  0  0  0  0  0  0  0  0  0
    5.0840   -4.5140    2.9000 H   0  0  0  0  0  0  0  0  0  0  0  0
    4.8310   -3.2850    4.1480 H   0  0  0  0  0  0  0  0  0  0  0  0
    5.9780   -2.9940    2.8450 H   0  0  0  0  0  0  0  0  0  0  0  0
    1.6600   -2.9800    2.2350 H   0  0  0  0  0  0  0  0  0  0  0  0
    2.4070   -3.5340    3.7210 H   0  0  0  0  0  0  0  0  0  0  0  0
    2.4970   -4.5420    2.2710 H   0  0  0  0  0  0  0  0  0  0  0  0
    7.5420   -1.5330   -2.3490 H   0  0  0  0  0  0  0  0  0  0  0  0
    1.7680   -0.0560   -1.7630 H   0  0  0  0  0  0  0  0  0  0  0  0
    0.6160   -0.9020   -0.7310 H   0  0  0  0  0  0  0  0  0  0  0  0
    0.5710    1.0620    0.6940 H   0  0  0  0  0  0  0  0  0  0  0  0
    7.0820    2.4940    0.2720 H   0  0  0  0  0  0  0  0  0  0  0  0
    7.3790    2.8360    1.9810 H   0  0  0  0  0  0  0  0  0  0  0  0
    5.8550    2.0810    1.5000 H   0  0  0  0  0  0  0  0  0  0  0  0
   -0.2970    1.7660   -2.0340 H   0  0  0  0  0  0  0  0  0  0  0  0
   -1.0990    0.5530   -1.0390 H   0  0  0  0  0  0  0  0  0  0  0  0
    2.6470    2.1270    0.2430 H   0  0  0  0  0  0  0  0  0  0  0  0
    1.3340    3.2360   -0.0190 H   0  0  0  0  0  0  0  0  0  0  0  0
    2.1080    2.4640   -1.4120 H   0  0  0  0  0  0  0  0  0  0  0  0
   10.1140   -0.2880    0.4540 H   0  0  0  0  0  0  0  0  0  0  0  0
   10.8000    0.4430   -1.0020 H   0  0  0  0  0  0  0  0  0  0  0  0
   10.1500   -1.1990   -1.0810 H   0  0  0  0  0  0  0  0  0  0  0  0
   -1.4150    2.2980    0.7670 H   0  0  0  0  0  0  0  0  0  0  0  0
   -0.9170    3.5240   -0.3900 H   0  0  0  0  0  0  0  0  0  0  0  0
   -3.7590    1.8410    0.8280 H   0  0  0  0  0  0  0  0  0  0  0  0
   -2.1570    3.4280   -2.7390 H   0  0  0  0  0  0  0  0  0  0  0  0
   -4.3750    3.5730   -3.6640 H   0  0  0  0  0  0  0  0  0  0  0  0
   -6.8430    0.2650   -1.1100 H   0  0  0  0  0  0  0  0  0  0  0  0
   -7.4400    0.2720    0.5540 H   0  0  0  0  0  0  0  0  0  0  0  0
   -5.7520   -0.1490    0.2400 H   0  0  0  0  0  0  0  0  0  0  0  0
   -7.4090    4.3060   -1.1830 H   0  0  0  0  0  0  0  0  0  0  0  0
   -8.2590    4.1030   -2.7200 H   0  0  0  0  0  0  0  0  0  0  0  0
   -6.7180    4.9700   -2.6880 H   0  0  0  0  0  0  0  0  0  0  0  0
  1  5  1  0  0  0  0
  1  4  1  0  0  0  0
  1  2  1  0  0  0  0
  1  3  1  0  0  0  0
  2  6  2  0  0  0  0
  2  7  1  0  0  0  0
  3 35  1  0  0  0  0
  3  8  1  0  0  0  0
  3 34  1  0  0  0  0
  4 36  1  0  0  0  0
  4 10  1  0  0  0  0
  4  9  1  0  0  0  0
  5 11  3  0  0  0  0
  6 37  1  0  0  0  0
  6 12  1  0  0  0  0
  7 13  2  0  0  0  0
  7 38  1  0  0  0  0
  8 39  1  0  0  0  0
  8 14  1  0  0  0  0
  8 40  1  0  0  0  0
  9 42  1  0  0  0  0
  9 41  1  0  0  0  0
  9 43  1  0  0  0  0
 10 45  1  0  0  0  0
 10 44  1  0  0  0  0
 10 46  1  0  0  0  0
 12 16  1  0  0  0  0
 12 15  2  0  0  0  0
 13 15  1  0  0  0  0
 13 47  1  0  0  0  0
 14 49  1  0  0  0  0
 14 17  1  0  0  0  0
 14 48  1  0  0  0  0
 15 18  1  0  0  0  0
 16 19  1  0  0  0  0
 17 50  1  0  0  0  0
 17 20  1  0  0  0  0
 17 21  1  0  0  0  0
 18 22  1  0  0  0  0
 19 53  1  0  0  0  0
 19 52  1  0  0  0  0
 19 51  1  0  0  0  0
 20 23  1  0  0  0  0
 20 54  1  0  0  0  0
 20 55  1  0  0  0  0
 21 57  1  0  0  0  0
 21 56  1  0  0  0  0
 21 58  1  0  0  0  0
 22 59  1  0  0  0  0
 22 60  1  0  0  0  0
 22 61  1  0  0  0  0
 23 62  1  0  0  0  0
 23 24  1  0  0  0  0
 23 63  1  0  0  0  0
 24 25  2  0  0  0  0
 24 26  1  0  0  0  0
 25 64  1  0  0  0  0
 25 27  1  0  0  0  0
 26 28  2  0  0  0  0
 26 65  1  0  0  0  0
 27 30  1  0  0  0  0
 27 29  2  0  0  0  0
 28 29  1  0  0  0  0
 28 66  1  0  0  0  0
 29 31  1  0  0  0  0
 30 32  1  0  0  0  0
 31 33  1  0  0  0  0
 32 69  1  0  0  0  0
 32 68  1  0  0  0  0
 32 67  1  0  0  0  0
 33 70  1  0  0  0  0
 33 71  1  0  0  0  0
 33 72  1  0  0  0  0
M  END
