decoy-114
 OpenBabel06062114503D

 48 51  0  0  0  0  0  0  0  0999 V2000
   -0.1420    1.5090    0.2430 C   0  0  0  0  0  0  0  0  0  0  0  0
    0.0390    0.0180   -0.2410 C   0  0  0  0  0  0  0  0  0  0  0  0
    1.2050    2.1840    0.2200 C   0  0  0  0  0  0  0  0  0  0  0  0
   -1.3140    2.2460   -0.4950 C   0  0  0  0  0  0  0  0  0  0  0  0
   -1.3450   -0.7070   -0.2330 C   0  0  0  0  0  0  0  0  0  0  0  0
    1.1260   -0.7470    0.6000 C   0  0  0  0  0  0  0  0  0  0  0  0
    2.3070    1.4840    0.7880 C   0  0  0  0  0  0  0  0  0  0  0  0
    1.4470    3.4550   -0.3590 C   0  0  0  0  0  0  0  0  0  0  0  0
   -2.6400    1.4290   -0.5560 C   0  0  0  0  0  0  0  0  0  0  0  0
   -2.4180   -0.0100   -1.1300 C   0  0  0  0  0  0  0  0  0  0  0  0
   -1.4500   -2.1990   -0.6230 C   0  0  0  0  0  0  0  0  0  0  0  0
    2.0730    0.1640    1.4320 C   0  0  0  0  0  0  0  0  0  0  0  0
    3.6020    2.0480    0.7570 C   0  0  0  0  0  0  0  0  0  0  0  0
    2.7420    4.0090   -0.4010 C   0  0  0  0  0  0  0  0  0  0  0  0
   -3.6100   -0.9960   -0.9240 C   0  0  0  0  0  0  0  0  0  0  0  0
   -2.0700    0.0730   -2.6650 C   0  0  0  0  0  0  0  0  0  0  0  0
   -2.9590   -2.4070   -0.9200 C   0  0  0  0  0  0  0  0  0  0  0  0
    3.8210    3.3070    0.1700 C   0  0  0  0  0  0  0  0  0  0  0  0
    2.9340    5.2510   -0.9450 O   0  0  0  0  0  0  0  0  0  0  0  0
   -4.6520   -0.8890   -1.8940 O   0  0  0  0  0  0  0  0  0  0  0  0
    5.0630    3.8530    0.1560 O   0  0  0  0  0  0  0  0  0  0  0  0
    3.1980    5.2160   -2.3580 C   0  0  0  0  0  0  0  0  0  0  0  0
   -0.4430    1.4730    1.2960 H   0  0  0  0  0  0  0  0  0  0  0  0
    0.4070    0.0460   -1.2710 H   0  0  0  0  0  0  0  0  0  0  0  0
   -1.6830   -0.6620    0.8130 H   0  0  0  0  0  0  0  0  0  0  0  0
   -1.5230    3.1880    0.0190 H   0  0  0  0  0  0  0  0  0  0  0  0
   -1.0090    2.4940   -1.5130 H   0  0  0  0  0  0  0  0  0  0  0  0
    0.6540   -1.4430    1.2990 H   0  0  0  0  0  0  0  0  0  0  0  0
    1.7320   -1.3510   -0.0820 H   0  0  0  0  0  0  0  0  0  0  0  0
    0.6850    4.0000   -0.7620 H   0  0  0  0  0  0  0  0  0  0  0  0
   -3.0520    1.3690    0.4560 H   0  0  0  0  0  0  0  0  0  0  0  0
   -3.3700    1.9670   -1.1670 H   0  0  0  0  0  0  0  0  0  0  0  0
   -0.8450   -2.4060   -1.5100 H   0  0  0  0  0  0  0  0  0  0  0  0
   -1.1150   -2.8510    0.1870 H   0  0  0  0  0  0  0  0  0  0  0  0
    1.6090    0.3570    2.4030 H   0  0  0  0  0  0  0  0  0  0  0  0
    3.0090   -0.3690    1.6230 H   0  0  0  0  0  0  0  0  0  0  0  0
    4.3920    1.5490    1.1730 H   0  0  0  0  0  0  0  0  0  0  0  0
   -4.0710   -0.8230    0.0540 H   0  0  0  0  0  0  0  0  0  0  0  0
   -1.1500    0.6200   -2.8560 H   0  0  0  0  0  0  0  0  0  0  0  0
   -1.9560   -0.9160   -3.1110 H   0  0  0  0  0  0  0  0  0  0  0  0
   -2.8700    0.5850   -3.2040 H   0  0  0  0  0  0  0  0  0  0  0  0
   -3.0830   -2.8970   -1.8900 H   0  0  0  0  0  0  0  0  0  0  0  0
   -3.4230   -3.0370   -0.1550 H   0  0  0  0  0  0  0  0  0  0  0  0
   -4.9930    0.0250   -1.7980 H   0  0  0  0  0  0  0  0  0  0  0  0
    5.6480    3.2030    0.6000 H   0  0  0  0  0  0  0  0  0  0  0  0
    3.3420    6.2400   -2.7020 H   0  0  0  0  0  0  0  0  0  0  0  0
    4.1060    4.6500   -2.5800 H   0  0  0  0  0  0  0  0  0  0  0  0
    2.3570    4.7870   -2.9090 H   0  0  0  0  0  0  0  0  0  0  0  0
  1  2  1  0  0  0  0
  1 23  1  0  0  0  0
  1  3  1  0  0  0  0
  1  4  1  0  0  0  0
  2  5  1  0  0  0  0
  2  6  1  0  0  0  0
  2 24  1  0  0  0  0
  3  7  2  0  0  0  0
  3  8  1  0  0  0  0
  4 26  1  0  0  0  0
  4  9  1  0  0  0  0
  4 27  1  0  0  0  0
  5 10  1  0  0  0  0
  5 25  1  0  0  0  0
  5 11  1  0  0  0  0
  6 28  1  0  0  0  0
  6 12  1  0  0  0  0
  6 29  1  0  0  0  0
  7 12  1  0  0  0  0
  7 13  1  0  0  0  0
  8 14  2  0  0  0  0
  8 30  1  0  0  0  0
  9 31  1  0  0  0  0
  9 10  1  0  0  0  0
  9 32  1  0  0  0  0
 10 15  1  0  0  0  0
 10 16  1  0  0  0  0
 11 34  1  0  0  0  0
 11 17  1  0  0  0  0
 11 33  1  0  0  0  0
 12 36  1  0  0  0  0
 12 35  1  0  0  0  0
 13 37  1  0  0  0  0
 13 18  2  0  0  0  0
 14 18  1  0  0  0  0
 14 19  1  0  0  0  0
 15 17  1  0  0  0  0
 15 38  1  0  0  0  0
 15 20  1  0  0  0  0
 16 39  1  0  0  0  0
 16 40  1  0  0  0  0
 16 41  1  0  0  0  0
 17 43  1  0  0  0  0
 17 42  1  0  0  0  0
 18 21  1  0  0  0  0
 19 22  1  0  0  0  0
 20 44  1  0  0  0  0
 21 45  1  0  0  0  0
 22 46  1  0  0  0  0
 22 47  1  0  0  0  0
 22 48  1  0  0  0  0
M  END
