decoy-273
 OpenBabel06062114513D

 39 42  0  0  0  0  0  0  0  0999 V2000
   -0.0380    1.5110    0.0810 C   0  0  0  0  0  0  0  0  0  0  0  0
   -0.0380    0.1290    0.1570 C   0  0  0  0  0  0  0  0  0  0  0  0
    1.0700    2.1700    0.0940 N   0  0  0  0  0  0  0  0  0  0  0  0
   -1.1450    2.1660   -0.0040 N   0  0  0  0  0  0  0  0  0  0  0  0
   -0.8430   -0.5420    1.1090 C   0  0  0  0  0  0  0  0  0  0  0  0
    0.7660   -0.6420   -0.7180 C   0  0  0  0  0  0  0  0  0  0  0  0
    1.0860    3.4570    0.0230 C   0  0  0  0  0  0  0  0  0  0  0  0
   -1.1600    3.4530   -0.0760 C   0  0  0  0  0  0  0  0  0  0  0  0
   -0.8420   -1.9480    1.1850 C   0  0  0  0  0  0  0  0  0  0  0  0
    0.7650   -2.0470   -0.6410 C   0  0  0  0  0  0  0  0  0  0  0  0
    2.2840    4.1510    0.0380 C   0  0  0  0  0  0  0  0  0  0  0  0
   -0.0370    4.0850   -0.0620 N   0  0  0  0  0  0  0  0  0  0  0  0
   -2.3570    4.1420   -0.1660 C   0  0  0  0  0  0  0  0  0  0  0  0
   -0.0390   -2.7000    0.3100 C   0  0  0  0  0  0  0  0  0  0  0  0
    2.4840    5.2280    0.9350 C   0  0  0  0  0  0  0  0  0  0  0  0
    3.3340    3.7970   -0.8450 C   0  0  0  0  0  0  0  0  0  0  0  0
   -2.6410    5.2140    0.7150 C   0  0  0  0  0  0  0  0  0  0  0  0
   -3.3220    3.7880   -1.1400 C   0  0  0  0  0  0  0  0  0  0  0  0
    3.7020    5.9320    0.9490 C   0  0  0  0  0  0  0  0  0  0  0  0
    4.5510    4.5030   -0.8290 C   0  0  0  0  0  0  0  0  0  0  0  0
   -3.8580    5.9140    0.6230 C   0  0  0  0  0  0  0  0  0  0  0  0
   -4.5390    4.4900   -1.2310 C   0  0  0  0  0  0  0  0  0  0  0  0
    4.7360    5.5700    0.0670 C   0  0  0  0  0  0  0  0  0  0  0  0
   -4.8080    5.5520   -0.3500 C   0  0  0  0  0  0  0  0  0  0  0  0
   -1.4320   -0.0130    1.7590 H   0  0  0  0  0  0  0  0  0  0  0  0
    1.3550   -0.1870   -1.4210 H   0  0  0  0  0  0  0  0  0  0  0  0
   -1.4260   -2.4230    1.8770 H   0  0  0  0  0  0  0  0  0  0  0  0
    1.3490   -2.5940   -1.2780 H   0  0  0  0  0  0  0  0  0  0  0  0
   -0.0390   -3.7210    0.3660 H   0  0  0  0  0  0  0  0  0  0  0  0
    1.7460    5.5050    1.5890 H   0  0  0  0  0  0  0  0  0  0  0  0
    3.2190    3.0260   -1.5090 H   0  0  0  0  0  0  0  0  0  0  0  0
   -1.9660    5.4900    1.4330 H   0  0  0  0  0  0  0  0  0  0  0  0
   -3.1450    3.0210   -1.7950 H   0  0  0  0  0  0  0  0  0  0  0  0
    3.8370    6.7080    1.6020 H   0  0  0  0  0  0  0  0  0  0  0  0
    5.3020    4.2400   -1.4710 H   0  0  0  0  0  0  0  0  0  0  0  0
   -4.0540    6.6860    1.2640 H   0  0  0  0  0  0  0  0  0  0  0  0
   -5.2290    4.2270   -1.9390 H   0  0  0  0  0  0  0  0  0  0  0  0
    5.6210    6.0820    0.0780 H   0  0  0  0  0  0  0  0  0  0  0  0
   -5.6920    6.0610   -0.4160 H   0  0  0  0  0  0  0  0  0  0  0  0
  1  3  2  0  0  0  0
  1  2  1  0  0  0  0
  1  4  1  0  0  0  0
  2  5  2  0  0  0  0
  2  6  1  0  0  0  0
  3  7  2  0  0  0  0
  4  8  2  0  0  0  0
  5  9  1  0  0  0  0
  5 25  1  0  0  0  0
  6 10  2  0  0  0  0
  6 26  1  0  0  0  0
  7 11  1  0  0  0  0
  7 12  1  0  0  0  0
  8 12  1  0  0  0  0
  8 13  1  0  0  0  0
  9 27  1  0  0  0  0
  9 14  2  0  0  0  0
 10 14  1  0  0  0  0
 10 28  1  0  0  0  0
 11 15  2  0  0  0  0
 11 16  1  0  0  0  0
 13 17  2  0  0  0  0
 13 18  1  0  0  0  0
 14 29  1  0  0  0  0
 15 19  1  0  0  0  0
 15 30  1  0  0  0  0
 16 20  2  0  0  0  0
 16 31  1  0  0  0  0
 17 32  1  0  0  0  0
 17 21  1  0  0  0  0
 18 22  2  0  0  0  0
 18 33  1  0  0  0  0
 19 34  1  0  0  0  0
 19 23  2  0  0  0  0
 20 23  1  0  0  0  0
 20 35  1  0  0  0  0
 21 36  1  0  0  0  0
 21 24  2  0  0  0  0
 22 24  1  0  0  0  0
 22 37  1  0  0  0  0
 23 38  1  0  0  0  0
 24 39  1  0  0  0  0
M  END
