decoy-40
 OpenBabel06062114503D

 92 93  0  0  0  0  0  0  0  0999 V2000
   -1.6700    0.5160    4.6300 C   0  0  0  0  0  0  0  0  0  0  0  0
   -1.1880   -0.8090    4.6100 C   0  0  0  0  0  0  0  0  0  0  0  0
   -1.0240    1.4120    3.8190 O   0  0  0  0  0  0  0  0  0  0  0  0
   -2.7610    0.8240    5.4630 C   0  0  0  0  0  0  0  0  0  0  0  0
   -1.7370   -1.8780    5.3920 C   0  0  0  0  0  0  0  0  0  0  0  0
   -1.1220    2.7380    3.5180 C   0  0  0  0  0  0  0  0  0  0  0  0
   -3.3430   -0.1760    6.2510 C   0  0  0  0  0  0  0  0  0  0  0  0
   -2.8420   -1.4880    6.2130 C   0  0  0  0  0  0  0  0  0  0  0  0
   -1.2090   -3.1850    5.3300 C   0  0  0  0  0  0  0  0  0  0  0  0
   -0.2590    3.3030    2.6190 N   0  0  0  0  0  0  0  0  0  0  0  0
   -2.0790    3.4870    4.1170 O   0  0  0  0  0  0  0  0  0  0  0  0
   -1.8840   -4.1750    6.1980 C   0  0  0  0  0  0  0  0  0  0  0  0
   -1.3030   -3.6910    3.9450 C   0  0  0  0  0  0  0  0  0  0  0  0
    0.2140   -3.1620    5.7290 C   0  0  0  0  0  0  0  0  0  0  0  0
   -0.3400    4.7140    2.2920 C   0  0  0  0  0  0  0  0  0  0  0  0
    0.7560    2.4810    2.0000 C   0  0  0  0  0  0  0  0  0  0  0  0
    0.3440    5.5950    3.3720 C   0  0  0  0  0  0  0  0  0  0  0  0
    0.2760    7.1100    3.0410 C   0  0  0  0  0  0  0  0  0  0  0  0
    0.9640    7.9870    4.1210 C   0  0  0  0  0  0  0  0  0  0  0  0
    0.8970    9.5020    3.7910 C   0  0  0  0  0  0  0  0  0  0  0  0
    1.5870   10.3780    4.8700 C   0  0  0  0  0  0  0  0  0  0  0  0
    1.5210   11.8930    4.5410 C   0  0  0  0  0  0  0  0  0  0  0  0
    2.2140   12.7680    5.6190 C   0  0  0  0  0  0  0  0  0  0  0  0
    2.1480   14.2840    5.2910 C   0  0  0  0  0  0  0  0  0  0  0  0
    2.8430   15.1610    6.3680 C   0  0  0  0  0  0  0  0  0  0  0  0
    2.7940   16.5760    6.0460 N   0  0  0  0  0  0  0  0  0  0  0  0
    1.6370   17.2910    6.2080 C   0  0  0  0  0  0  0  0  0  0  0  0
    4.0080   17.1930    5.5600 C   0  0  0  0  0  0  0  0  0  0  0  0
    1.5850   18.6170    5.8960 O   0  0  0  0  0  0  0  0  0  0  0  0
    0.5280   16.6900    6.7050 O   0  0  0  0  0  0  0  0  0  0  0  0
    0.6620   19.6290    5.9170 C   0  0  0  0  0  0  0  0  0  0  0  0
   -0.6910   19.4990    6.3030 C   0  0  0  0  0  0  0  0  0  0  0  0
    1.1270   20.8900    5.5120 C   0  0  0  0  0  0  0  0  0  0  0  0
   -1.6290   20.5830    6.3130 C   0  0  0  0  0  0  0  0  0  0  0  0
    0.2620   21.9890    5.4990 C   0  0  0  0  0  0  0  0  0  0  0  0
   -1.0790   21.8350    5.8900 C   0  0  0  0  0  0  0  0  0  0  0  0
   -2.9700   20.3950    6.7110 C   0  0  0  0  0  0  0  0  0  0  0  0
   -3.8130   21.6110    6.6710 C   0  0  0  0  0  0  0  0  0  0  0  0
   -3.6120   19.3990    5.8290 C   0  0  0  0  0  0  0  0  0  0  0  0
   -3.0080   19.8910    8.0990 C   0  0  0  0  0  0  0  0  0  0  0  0
   -0.3960   -0.9880    3.9920 H   0  0  0  0  0  0  0  0  0  0  0  0
   -3.1430    1.7670    5.5090 H   0  0  0  0  0  0  0  0  0  0  0  0
   -4.1370    0.0520    6.8550 H   0  0  0  0  0  0  0  0  0  0  0  0
   -3.3210   -2.1560    6.8150 H   0  0  0  0  0  0  0  0  0  0  0  0
   -1.8250   -3.8980    7.2560 H   0  0  0  0  0  0  0  0  0  0  0  0
   -1.4440   -5.1760    6.1220 H   0  0  0  0  0  0  0  0  0  0  0  0
   -2.9420   -4.2890    5.9410 H   0  0  0  0  0  0  0  0  0  0  0  0
   -2.3420   -3.6990    3.5960 H   0  0  0  0  0  0  0  0  0  0  0  0
   -0.9280   -4.7160    3.8510 H   0  0  0  0  0  0  0  0  0  0  0  0
   -0.7300   -3.1040    3.2230 H   0  0  0  0  0  0  0  0  0  0  0  0
    0.8450   -2.5570    5.0740 H   0  0  0  0  0  0  0  0  0  0  0  0
    0.6630   -4.1610    5.7240 H   0  0  0  0  0  0  0  0  0  0  0  0
    0.3350   -2.7650    6.7430 H   0  0  0  0  0  0  0  0  0  0  0  0
    0.1330    4.9210    1.3280 H   0  0  0  0  0  0  0  0  0  0  0  0
   -1.3860    5.0140    2.1790 H   0  0  0  0  0  0  0  0  0  0  0  0
    1.3880    2.0270    2.7680 H   0  0  0  0  0  0  0  0  0  0  0  0
    1.4130    3.0390    1.3300 H   0  0  0  0  0  0  0  0  0  0  0  0
    0.2860    1.6860    1.4170 H   0  0  0  0  0  0  0  0  0  0  0  0
   -0.1380    5.4220    4.3370 H   0  0  0  0  0  0  0  0  0  0  0  0
    1.3920    5.2940    3.4570 H   0  0  0  0  0  0  0  0  0  0  0  0
    0.7620    7.2860    2.0780 H   0  0  0  0  0  0  0  0  0  0  0  0
   -0.7720    7.4080    2.9540 H   0  0  0  0  0  0  0  0  0  0  0  0
    0.4770    7.8110    5.0850 H   0  0  0  0  0  0  0  0  0  0  0  0
    2.0120    7.6880    4.2080 H   0  0  0  0  0  0  0  0  0  0  0  0
    1.3820    9.6780    2.8270 H   0  0  0  0  0  0  0  0  0  0  0  0
   -0.1510    9.8020    3.7060 H   0  0  0  0  0  0  0  0  0  0  0  0
    1.1020   10.2020    5.8350 H   0  0  0  0  0  0  0  0  0  0  0  0
    2.6350   10.0780    4.9550 H   0  0  0  0  0  0  0  0  0  0  0  0
    2.0040   12.0690    3.5760 H   0  0  0  0  0  0  0  0  0  0  0  0
    0.4730   12.1940    4.4580 H   0  0  0  0  0  0  0  0  0  0  0  0
    1.7310   12.5930    6.5850 H   0  0  0  0  0  0  0  0  0  0  0  0
    3.2620   12.4670    5.7020 H   0  0  0  0  0  0  0  0  0  0  0  0
    2.6340   14.4620    4.3280 H   0  0  0  0  0  0  0  0  0  0  0  0
    1.1010   14.5790    5.2000 H   0  0  0  0  0  0  0  0  0  0  0  0
    2.3820   14.9880    7.3450 H   0  0  0  0  0  0  0  0  0  0  0  0
    3.8800   14.8190    6.4580 H   0  0  0  0  0  0  0  0  0  0  0  0
    4.7880   17.1150    6.3200 H   0  0  0  0  0  0  0  0  0  0  0  0
    3.9050   18.2490    5.3070 H   0  0  0  0  0  0  0  0  0  0  0  0
    4.3470   16.6750    4.6600 H   0  0  0  0  0  0  0  0  0  0  0  0
   -1.0010   18.5740    6.5840 H   0  0  0  0  0  0  0  0  0  0  0  0
    2.1020   21.0120    5.2260 H   0  0  0  0  0  0  0  0  0  0  0  0
    0.6090   22.9050    5.2030 H   0  0  0  0  0  0  0  0  0  0  0  0
   -1.6440   22.6820    5.8540 H   0  0  0  0  0  0  0  0  0  0  0  0
   -3.4300   22.3940    7.3340 H   0  0  0  0  0  0  0  0  0  0  0  0
   -4.8450   21.4230    6.9870 H   0  0  0  0  0  0  0  0  0  0  0  0
   -3.8770   22.0310    5.6620 H   0  0  0  0  0  0  0  0  0  0  0  0
   -3.5820   19.7180    4.7810 H   0  0  0  0  0  0  0  0  0  0  0  0
   -4.6660   19.2370    6.0820 H   0  0  0  0  0  0  0  0  0  0  0  0
   -3.1490   18.4100    5.8710 H   0  0  0  0  0  0  0  0  0  0  0  0
   -2.5230   18.9210    8.2290 H   0  0  0  0  0  0  0  0  0  0  0  0
   -4.0320   19.7560    8.4650 H   0  0  0  0  0  0  0  0  0  0  0  0
   -2.5150   20.5870    8.7880 H   0  0  0  0  0  0  0  0  0  0  0  0
  1  4  2  0  0  0  0
  1  2  1  0  0  0  0
  1  3  1  0  0  0  0
  2  5  2  0  0  0  0
  2 41  1  0  0  0  0
  3  6  1  0  0  0  0
  4 42  1  0  0  0  0
  4  7  1  0  0  0  0
  5  8  1  0  0  0  0
  5  9  1  0  0  0  0
  6 11  2  0  0  0  0
  6 10  1  0  0  0  0
  7 43  1  0  0  0  0
  7  8  2  0  0  0  0
  8 44  1  0  0  0  0
  9 14  1  0  0  0  0
  9 12  1  0  0  0  0
  9 13  1  0  0  0  0
 10 15  1  0  0  0  0
 10 16  1  0  0  0  0
 12 45  1  0  0  0  0
 12 46  1  0  0  0  0
 12 47  1  0  0  0  0
 13 48  1  0  0  0  0
 13 49  1  0  0  0  0
 13 50  1  0  0  0  0
 14 53  1  0  0  0  0
 14 51  1  0  0  0  0
 14 52  1  0  0  0  0
 15 17  1  0  0  0  0
 15 54  1  0  0  0  0
 15 55  1  0  0  0  0
 16 56  1  0  0  0  0
 16 57  1  0  0  0  0
 16 58  1  0  0  0  0
 17 60  1  0  0  0  0
 17 59  1  0  0  0  0
 17 18  1  0  0  0  0
 18 19  1  0  0  0  0
 18 61  1  0  0  0  0
 18 62  1  0  0  0  0
 19 64  1  0  0  0  0
 19 63  1  0  0  0  0
 19 20  1  0  0  0  0
 20 21  1  0  0  0  0
 20 65  1  0  0  0  0
 20 66  1  0  0  0  0
 21 68  1  0  0  0  0
 21 67  1  0  0  0  0
 21 22  1  0  0  0  0
 22 23  1  0  0  0  0
 22 69  1  0  0  0  0
 22 70  1  0  0  0  0
 23 72  1  0  0  0  0
 23 71  1  0  0  0  0
 23 24  1  0  0  0  0
 24 25  1  0  0  0  0
 24 73  1  0  0  0  0
 24 74  1  0  0  0  0
 25 76  1  0  0  0  0
 25 75  1  0  0  0  0
 25 26  1  0  0  0  0
 26 27  1  0  0  0  0
 26 28  1  0  0  0  0
 27 30  2  0  0  0  0
 27 29  1  0  0  0  0
 28 77  1  0  0  0  0
 28 78  1  0  0  0  0
 28 79  1  0  0  0  0
 29 31  1  0  0  0  0
 31 32  2  0  0  0  0
 31 33  1  0  0  0  0
 32 34  1  0  0  0  0
 32 80  1  0  0  0  0
 33 35  2  0  0  0  0
 33 81  1  0  0  0  0
 34 37  1  0  0  0  0
 34 36  2  0  0  0  0
 35 36  1  0  0  0  0
 35 82  1  0  0  0  0
 36 83  1  0  0  0  0
 37 40  1  0  0  0  0
 37 38  1  0  0  0  0
 37 39  1  0  0  0  0
 38 85  1  0  0  0  0
 38 84  1  0  0  0  0
 38 86  1  0  0  0  0
 39 89  1  0  0  0  0
 39 88  1  0  0  0  0
 39 87  1  0  0  0  0
 40 90  1  0  0  0  0
 40 91  1  0  0  0  0
 40 92  1  0  0  0  0
M  END
