decoy-1064
 OpenBabel06062114513D

 38 37  0  0  0  0  0  0  0  0999 V2000
   -0.0400    2.1060    0.6340 C   0  0  0  0  0  0  0  0  0  0  0  0
   -0.2320    0.6420    0.3360 C   0  0  0  0  0  0  0  0  0  0  0  0
    1.3170    2.4090    1.2110 C   0  0  0  0  0  0  0  0  0  0  0  0
   -0.3720    2.9910   -0.5360 C   0  0  0  0  0  0  0  0  0  0  0  0
   -1.7130    0.1800    0.4680 C   0  0  0  0  0  0  0  0  0  0  0  0
    1.4740    2.0040    2.6210 C   0  0  0  0  0  0  0  0  0  0  0  0
   -0.7530    4.3660   -0.1570 C   0  0  0  0  0  0  0  0  0  0  0  0
   -1.8920   -1.3250    0.1200 C   0  0  0  0  0  0  0  0  0  0  0  0
   -2.1690    0.4020    1.8020 O   0  0  0  0  0  0  0  0  0  0  0  0
    2.6620    2.1850    3.2380 O   0  0  0  0  0  0  0  0  0  0  0  0
    0.4350    1.5510    3.3590 O   0  0  0  0  0  0  0  0  0  0  0  0
   -1.0290    5.2700   -1.1220 O   0  0  0  0  0  0  0  0  0  0  0  0
   -0.9470    4.7280    1.1310 O   0  0  0  0  0  0  0  0  0  0  0  0
   -3.3200   -1.7880    0.2460 C   0  0  0  0  0  0  0  0  0  0  0  0
   -4.1530   -1.4600   -0.9630 C   0  0  0  0  0  0  0  0  0  0  0  0
   -3.4300   -3.2360    0.6390 C   0  0  0  0  0  0  0  0  0  0  0  0
   -5.5980   -1.3570   -0.6840 C   0  0  0  0  0  0  0  0  0  0  0  0
   -3.1190   -3.5000    2.0570 C   0  0  0  0  0  0  0  0  0  0  0  0
   -6.4570   -1.1120   -1.6990 O   0  0  0  0  0  0  0  0  0  0  0  0
   -6.0900   -1.3850    0.5750 O   0  0  0  0  0  0  0  0  0  0  0  0
   -3.1420   -4.7700    2.5190 O   0  0  0  0  0  0  0  0  0  0  0  0
   -2.9130   -2.5020    2.9460 O   0  0  0  0  0  0  0  0  0  0  0  0
    0.1380    0.4140   -0.6680 H   0  0  0  0  0  0  0  0  0  0  0  0
    0.3510    0.0290    1.0300 H   0  0  0  0  0  0  0  0  0  0  0  0
    2.0930    1.9190    0.6160 H   0  0  0  0  0  0  0  0  0  0  0  0
    1.5190    3.4820    1.1850 H   0  0  0  0  0  0  0  0  0  0  0  0
    0.4790    3.0390   -1.2220 H   0  0  0  0  0  0  0  0  0  0  0  0
   -1.2170    2.5940   -1.1010 H   0  0  0  0  0  0  0  0  0  0  0  0
   -2.3360    0.7760   -0.1980 H   0  0  0  0  0  0  0  0  0  0  0  0
   -1.5230   -1.5180   -0.8920 H   0  0  0  0  0  0  0  0  0  0  0  0
   -1.2450   -1.8860    0.8010 H   0  0  0  0  0  0  0  0  0  0  0  0
   -2.1220    1.3720    1.9340 H   0  0  0  0  0  0  0  0  0  0  0  0
   -3.8630   -0.4990   -1.3900 H   0  0  0  0  0  0  0  0  0  0  0  0
   -3.9980   -2.2150   -1.7390 H   0  0  0  0  0  0  0  0  0  0  0  0
   -4.4470   -3.6050    0.4840 H   0  0  0  0  0  0  0  0  0  0  0  0
   -2.7680   -3.8430    0.0150 H   0  0  0  0  0  0  0  0  0  0  0  0
   -0.7150    2.3390    1.3650 H   0  0  0  0  0  0  0  0  0  0  0  0
   -3.7230   -1.2540    1.0190 H   0  0  0  0  0  0  0  0  0  0  0  0
  1  3  1  0  0  0  0
  1 37  1  0  0  0  0
  1  2  1  0  0  0  0
  1  4  1  0  0  0  0
  2  5  1  0  0  0  0
  2 24  1  0  0  0  0
  2 23  1  0  0  0  0
  3  6  1  0  0  0  0
  3 25  1  0  0  0  0
  3 26  1  0  0  0  0
  4  7  1  0  0  0  0
  4 27  1  0  0  0  0
  4 28  1  0  0  0  0
  5  9  1  0  0  0  0
  5  8  1  0  0  0  0
  5 29  1  0  0  0  0
  6 10  2  0  0  0  0
  6 11  1  0  0  0  0
  7 13  1  0  0  0  0
  7 12  2  0  0  0  0
  8 14  1  0  0  0  0
  8 31  1  0  0  0  0
  8 30  1  0  0  0  0
  9 32  1  0  0  0  0
 14 16  1  0  0  0  0
 14 38  1  0  0  0  0
 14 15  1  0  0  0  0
 15 17  1  0  0  0  0
 15 33  1  0  0  0  0
 15 34  1  0  0  0  0
 16 18  1  0  0  0  0
 16 35  1  0  0  0  0
 16 36  1  0  0  0  0
 17 20  1  0  0  0  0
 17 19  2  0  0  0  0
 18 21  2  0  0  0  0
 18 22  1  0  0  0  0
M  END
