decoy-498
 OpenBabel06062114513D

 54 57  0  0  0  0  0  0  0  0999 V2000
    0.1800    1.4460   -0.4150 C   0  0  0  0  0  0  0  0  0  0  0  0
    0.1400   -0.1150   -0.5130 C   0  0  0  0  0  0  0  0  0  0  0  0
    1.6390    2.0180   -0.4450 C   0  0  0  0  0  0  0  0  0  0  0  0
   -0.5920    2.3230   -1.4220 C   0  0  0  0  0  0  0  0  0  0  0  0
    0.9920   -0.7410    0.6690 C   0  0  0  0  0  0  0  0  0  0  0  0
   -1.3150   -0.6670   -0.4970 C   0  0  0  0  0  0  0  0  0  0  0  0
    1.3290    3.5650   -0.3720 C   0  0  0  0  0  0  0  0  0  0  0  0
    2.4010    1.3790    0.7700 C   0  0  0  0  0  0  0  0  0  0  0  0
    2.4430    1.6660   -1.7610 C   0  0  0  0  0  0  0  0  0  0  0  0
    0.0850    3.7170   -1.3180 C   0  0  0  0  0  0  0  0  0  0  0  0
    0.9200   -2.3340    0.7070 C   0  0  0  0  0  0  0  0  0  0  0  0
    2.3160   -0.0840    0.7240 C   0  0  0  0  0  0  0  0  0  0  0  0
   -1.3420   -2.2150   -0.4700 C   0  0  0  0  0  0  0  0  0  0  0  0
    2.4490    4.4730   -0.6910 C   0  0  0  0  0  0  0  0  0  0  0  0
    0.8450    3.9080    0.9390 O   0  0  0  0  0  0  0  0  0  0  0  0
   -0.5350   -2.7100    0.6550 C   0  0  0  0  0  0  0  0  0  0  0  0
    1.6040   -2.9090    2.0210 C   0  0  0  0  0  0  0  0  0  0  0  0
    1.6650   -2.9980   -0.5090 C   0  0  0  0  0  0  0  0  0  0  0  0
    3.3620   -0.7080    0.6110 O   0  0  0  0  0  0  0  0  0  0  0  0
    3.3110    5.0560    0.3280 C   0  0  0  0  0  0  0  0  0  0  0  0
    2.7370    4.6820   -1.8640 O   0  0  0  0  0  0  0  0  0  0  0  0
   -1.1650   -3.3400    1.6750 C   0  0  0  0  0  0  0  0  0  0  0  0
    0.6520   -2.9370    3.2410 C   0  0  0  0  0  0  0  0  0  0  0  0
    4.4040    5.8030   -0.2050 O   0  0  0  0  0  0  0  0  0  0  0  0
   -0.5620   -3.6290    2.8540 C   0  0  0  0  0  0  0  0  0  0  0  0
   -1.0250   -4.4990    3.5790 O   0  0  0  0  0  0  0  0  0  0  0  0
   -0.2680    1.6750    0.5620 H   0  0  0  0  0  0  0  0  0  0  0  0
    0.5680   -0.4050   -1.4730 H   0  0  0  0  0  0  0  0  0  0  0  0
    0.5020   -0.4170    1.5950 H   0  0  0  0  0  0  0  0  0  0  0  0
   -0.4960    1.9160   -2.4330 H   0  0  0  0  0  0  0  0  0  0  0  0
   -1.6540    2.3770   -1.1680 H   0  0  0  0  0  0  0  0  0  0  0  0
   -1.8470   -0.2860    0.3810 H   0  0  0  0  0  0  0  0  0  0  0  0
   -1.8500   -0.3230   -1.3870 H   0  0  0  0  0  0  0  0  0  0  0  0
    3.4420    1.7160    0.7710 H   0  0  0  0  0  0  0  0  0  0  0  0
    1.9640    1.7040    1.7170 H   0  0  0  0  0  0  0  0  0  0  0  0
    1.9530    2.0520   -2.6550 H   0  0  0  0  0  0  0  0  0  0  0  0
    3.4450    2.0950   -1.7180 H   0  0  0  0  0  0  0  0  0  0  0  0
    2.5710    0.5930   -1.8980 H   0  0  0  0  0  0  0  0  0  0  0  0
    0.3680    4.0390   -2.3230 H   0  0  0  0  0  0  0  0  0  0  0  0
   -0.6210    4.4580   -0.9290 H   0  0  0  0  0  0  0  0  0  0  0  0
   -2.3900   -2.5290   -0.4170 H   0  0  0  0  0  0  0  0  0  0  0  0
   -0.9560   -2.6100   -1.4120 H   0  0  0  0  0  0  0  0  0  0  0  0
    1.5930    3.7510    1.5500 H   0  0  0  0  0  0  0  0  0  0  0  0
    1.9320   -3.9430    1.8590 H   0  0  0  0  0  0  0  0  0  0  0  0
    2.4960   -2.3460    2.2970 H   0  0  0  0  0  0  0  0  0  0  0  0
    1.3970   -2.5470   -1.4620 H   0  0  0  0  0  0  0  0  0  0  0  0
    2.7480   -2.9180   -0.4070 H   0  0  0  0  0  0  0  0  0  0  0  0
    1.4240   -4.0620   -0.5680 H   0  0  0  0  0  0  0  0  0  0  0  0
    2.7260    5.7290    0.9560 H   0  0  0  0  0  0  0  0  0  0  0  0
    3.7240    4.2630    0.9530 H   0  0  0  0  0  0  0  0  0  0  0  0
   -2.1290   -3.5760    1.5890 H   0  0  0  0  0  0  0  0  0  0  0  0
    1.1420   -3.4310    4.0850 H   0  0  0  0  0  0  0  0  0  0  0  0
    0.4050   -1.9170    3.5440 H   0  0  0  0  0  0  0  0  0  0  0  0
    4.8910    6.1320    0.5790 H   0  0  0  0  0  0  0  0  0  0  0  0
  1  2  1  0  0  0  0
  1 27  1  0  0  0  0
  1  3  1  0  0  0  0
  1  4  1  0  0  0  0
  2  6  1  0  0  0  0
  2  5  1  0  0  0  0
  2 28  1  0  0  0  0
  3  8  1  0  0  0  0
  3  7  1  0  0  0  0
  3  9  1  0  0  0  0
  4 10  1  0  0  0  0
  4 31  1  0  0  0  0
  4 30  1  0  0  0  0
  5 11  1  0  0  0  0
  5 12  1  0  0  0  0
  5 29  1  0  0  0  0
  6 13  1  0  0  0  0
  6 32  1  0  0  0  0
  6 33  1  0  0  0  0
  7 15  1  0  0  0  0
  7 10  1  0  0  0  0
  7 14  1  0  0  0  0
  8 34  1  0  0  0  0
  8 35  1  0  0  0  0
  8 12  1  0  0  0  0
  9 37  1  0  0  0  0
  9 36  1  0  0  0  0
  9 38  1  0  0  0  0
 10 40  1  0  0  0  0
 10 39  1  0  0  0  0
 11 18  1  0  0  0  0
 11 17  1  0  0  0  0
 11 16  1  0  0  0  0
 12 19  2  0  0  0  0
 13 41  1  0  0  0  0
 13 16  1  0  0  0  0
 13 42  1  0  0  0  0
 14 20  1  0  0  0  0
 14 21  2  0  0  0  0
 15 43  1  0  0  0  0
 16 22  2  0  0  0  0
 17 45  1  0  0  0  0
 17 23  1  0  0  0  0
 17 44  1  0  0  0  0
 18 47  1  0  0  0  0
 18 46  1  0  0  0  0
 18 48  1  0  0  0  0
 20 50  1  0  0  0  0
 20 49  1  0  0  0  0
 20 24  1  0  0  0  0
 22 25  1  0  0  0  0
 22 51  1  0  0  0  0
 23 53  1  0  0  0  0
 23 52  1  0  0  0  0
 23 25  1  0  0  0  0
 24 54  1  0  0  0  0
 25 26  2  0  0  0  0
M  END
