decoy-187
 OpenBabel06062114503D

 29 28  0  0  0  0  0  0  0  0999 V2000
   -0.0190    1.4640    0.0090 *   0  0  0  0  0  0  0  0  0  0  0  0
   -0.0140   -0.0660   -0.0270 C   0  0  0  0  0  0  0  0  0  0  0  0
    1.4110    2.0080    0.0260 C   0  0  0  0  0  0  0  0  0  0  0  0
   -0.7640    1.9400   -1.2400 C   0  0  0  0  0  0  0  0  0  0  0  0
   -0.7080    1.9730    1.2770 C   0  0  0  0  0  0  0  0  0  0  0  0
    0.6730   -0.8620    1.1160 C   0  0  0  0  0  0  0  0  0  0  0  0
    2.3800    1.6660   -1.1380 C   0  0  0  0  0  0  0  0  0  0  0  0
   -0.9420    3.4610   -1.4980 C   0  0  0  0  0  0  0  0  0  0  0  0
   -2.1870    1.5900    1.5570 C   0  0  0  0  0  0  0  0  0  0  0  0
   -1.0420   -0.4370   -0.0740 H   0  0  0  0  0  0  0  0  0  0  0  0
    0.4500   -0.4110   -0.9550 H   0  0  0  0  0  0  0  0  0  0  0  0
    1.3890    3.1000    0.0870 H   0  0  0  0  0  0  0  0  0  0  0  0
    1.9170    1.6880    0.9410 H   0  0  0  0  0  0  0  0  0  0  0  0
   -0.2790    1.5380   -2.1340 H   0  0  0  0  0  0  0  0  0  0  0  0
   -1.7710    1.5130   -1.2530 H   0  0  0  0  0  0  0  0  0  0  0  0
   -0.1430    1.6530    2.1570 H   0  0  0  0  0  0  0  0  0  0  0  0
   -0.6710    3.0660    1.3030 H   0  0  0  0  0  0  0  0  0  0  0  0
    0.5770   -1.9320    0.9220 H   0  0  0  0  0  0  0  0  0  0  0  0
    1.7360   -0.6290    1.1750 H   0  0  0  0  0  0  0  0  0  0  0  0
    0.2060   -0.6540    2.0780 H   0  0  0  0  0  0  0  0  0  0  0  0
    3.3480    2.1390   -0.9560 H   0  0  0  0  0  0  0  0  0  0  0  0
    2.5430    0.5920   -1.2140 H   0  0  0  0  0  0  0  0  0  0  0  0
    2.0020    2.0400   -2.0900 H   0  0  0  0  0  0  0  0  0  0  0  0
   -1.4940    3.6080   -2.4290 H   0  0  0  0  0  0  0  0  0  0  0  0
   -1.5080    3.9340   -0.6970 H   0  0  0  0  0  0  0  0  0  0  0  0
    0.0210    3.9600   -1.6000 H   0  0  0  0  0  0  0  0  0  0  0  0
   -2.5060    2.0400    2.4990 H   0  0  0  0  0  0  0  0  0  0  0  0
   -2.8460    1.9580    0.7720 H   0  0  0  0  0  0  0  0  0  0  0  0
   -2.3050    0.5100    1.6480 H   0  0  0  0  0  0  0  0  0  0  0  0
  1  3  1  0  0  0  0
  1  5  1  0  0  0  0
  1  2  1  0  0  0  0
  1  4  1  0  0  0  0
  2  6  1  0  0  0  0
  2 10  1  0  0  0  0
  2 11  1  0  0  0  0
  3 12  1  0  0  0  0
  3 13  1  0  0  0  0
  3  7  1  0  0  0  0
  4  8  1  0  0  0  0
  4 14  1  0  0  0  0
  4 15  1  0  0  0  0
  5 17  1  0  0  0  0
  5  9  1  0  0  0  0
  5 16  1  0  0  0  0
  6 19  1  0  0  0  0
  6 20  1  0  0  0  0
  6 18  1  0  0  0  0
  7 21  1  0  0  0  0
  7 22  1  0  0  0  0
  7 23  1  0  0  0  0
  8 25  1  0  0  0  0
  8 24  1  0  0  0  0
  8 26  1  0  0  0  0
  9 29  1  0  0  0  0
  9 27  1  0  0  0  0
  9 28  1  0  0  0  0
M  END
