decoy-889
 OpenBabel06062114513D

 36 37  0  0  0  0  0  0  0  0999 V2000
   -0.0520    1.4330   -0.6720 C   0  0  0  0  0  0  0  0  0  0  0  0
   -0.0400    0.0300   -0.8480 C   0  0  0  0  0  0  0  0  0  0  0  0
    1.1600    2.1130   -0.4930 C   0  0  0  0  0  0  0  0  0  0  0  0
   -1.2630    2.1640   -0.6790 C   0  0  0  0  0  0  0  0  0  0  0  0
   -1.1930   -0.6520   -1.0230 C   0  0  0  0  0  0  0  0  0  0  0  0
    1.4940   -0.8380   -0.8390 S   0  0  0  0  0  0  0  0  0  0  0  0
    1.2140    3.4880   -0.6580 C   0  0  0  0  0  0  0  0  0  0  0  0
   -2.4460    1.5360   -0.8550 C   0  0  0  0  0  0  0  0  0  0  0  0
   -2.4660    0.0790   -1.0290 C   0  0  0  0  0  0  0  0  0  0  0  0
    2.0080   -0.7260   -2.1590 O   0  0  0  0  0  0  0  0  0  0  0  0
    2.1650   -0.4230    0.3420 O   0  0  0  0  0  0  0  0  0  0  0  0
    1.1810   -2.3140   -0.6410 O   0  0  0  0  0  0  0  0  0  0  0  0
    2.4260    4.1680   -0.4790 C   0  0  0  0  0  0  0  0  0  0  0  0
   -3.6060   -0.5610   -1.1990 N   0  0  0  0  0  0  0  0  0  0  0  0
    2.4130    5.5700   -0.2880 C   0  0  0  0  0  0  0  0  0  0  0  0
    3.6370    3.4390   -0.4860 C   0  0  0  0  0  0  0  0  0  0  0  0
   -4.6830    0.0730   -1.2020 C   0  0  0  0  0  0  0  0  0  0  0  0
    3.5650    6.2510   -0.1120 C   0  0  0  0  0  0  0  0  0  0  0  0
    0.8770    6.4340   -0.2800 S   0  0  0  0  0  0  0  0  0  0  0  0
    4.8200    4.0670   -0.3160 C   0  0  0  0  0  0  0  0  0  0  0  0
   -6.0230    0.8600   -1.2060 S   0  0  0  0  0  0  0  0  0  0  0  0
    4.8400    5.5220   -0.1210 C   0  0  0  0  0  0  0  0  0  0  0  0
    0.5770    6.7000   -1.6430 O   0  0  0  0  0  0  0  0  0  0  0  0
    0.0400    5.7270    0.6230 O   0  0  0  0  0  0  0  0  0  0  0  0
    1.1240    7.7930    0.3600 O   0  0  0  0  0  0  0  0  0  0  0  0
    5.9790    6.1620    0.0470 N   0  0  0  0  0  0  0  0  0  0  0  0
    7.0580    5.5300    0.0370 C   0  0  0  0  0  0  0  0  0  0  0  0
    8.3980    4.7440    0.0260 S   0  0  0  0  0  0  0  0  0  0  0  0
    2.0590    1.5610   -0.2240 H   0  0  0  0  0  0  0  0  0  0  0  0
   -1.2410    3.2390   -0.5410 H   0  0  0  0  0  0  0  0  0  0  0  0
   -1.1780   -1.7280   -1.1580 H   0  0  0  0  0  0  0  0  0  0  0  0
    0.3140    4.0400   -0.9270 H   0  0  0  0  0  0  0  0  0  0  0  0
   -3.3700    2.1020   -0.8670 H   0  0  0  0  0  0  0  0  0  0  0  0
    3.6160    2.3650   -0.6310 H   0  0  0  0  0  0  0  0  0  0  0  0
    3.5490    7.3250    0.0330 H   0  0  0  0  0  0  0  0  0  0  0  0
    5.7460    3.5030   -0.3220 H   0  0  0  0  0  0  0  0  0  0  0  0
  1  3  1  0  0  0  0
  1  2  2  0  0  0  0
  1  4  1  0  0  0  0
  2  6  1  0  0  0  0
  2  5  1  0  0  0  0
  3 29  1  0  0  0  0
  3  7  2  0  0  0  0
  4 30  1  0  0  0  0
  4  8  2  0  0  0  0
  5  9  2  0  0  0  0
  5 31  1  0  0  0  0
  6 12  2  0  0  0  0
  6 11  1  0  0  0  0
  6 10  2  0  0  0  0
  7 13  1  0  0  0  0
  7 32  1  0  0  0  0
  8  9  1  0  0  0  0
  8 33  1  0  0  0  0
  9 14  1  0  0  0  0
 13 15  2  0  0  0  0
 13 16  1  0  0  0  0
 14 17  2  0  0  0  0
 15 19  1  0  0  0  0
 15 18  1  0  0  0  0
 16 20  2  0  0  0  0
 16 34  1  0  0  0  0
 17 21  2  0  0  0  0
 18 35  1  0  0  0  0
 18 22  2  0  0  0  0
 19 25  2  0  0  0  0
 19 24  1  0  0  0  0
 19 23  2  0  0  0  0
 20 22  1  0  0  0  0
 20 36  1  0  0  0  0
 22 26  1  0  0  0  0
 26 27  2  0  0  0  0
 27 28  2  0  0  0  0
M  END
