decoy-624
 OpenBabel06062114513D

 62 67  0  0  0  0  0  0  0  0999 V2000
    0.3080    0.3960    0.5830 C   0  0  0  0  0  0  0  0  0  0  0  0
    0.8880   -0.2530   -0.4600 C   0  0  0  0  0  0  0  0  0  0  0  0
    0.9370    0.7150    1.7400 N   0  0  0  0  0  0  0  0  0  0  0  0
   -0.9790    0.8160    0.6120 N   0  0  0  0  0  0  0  0  0  0  0  0
    0.2380   -1.0790   -1.3150 N   0  0  0  0  0  0  0  0  0  0  0  0
    2.1990   -0.1630   -0.7920 N   0  0  0  0  0  0  0  0  0  0  0  0
    2.0110    0.0980    2.3480 C   0  0  0  0  0  0  0  0  0  0  0  0
    0.0940    1.5970    2.4850 C   0  0  0  0  0  0  0  0  0  0  0  0
   -1.8080    1.1630   -0.4350 C   0  0  0  0  0  0  0  0  0  0  0  0
   -1.2900    1.2280    1.9450 C   0  0  0  0  0  0  0  0  0  0  0  0
   -0.8980   -1.8330   -1.1050 C   0  0  0  0  0  0  0  0  0  0  0  0
    1.1090   -1.3750   -2.4090 C   0  0  0  0  0  0  0  0  0  0  0  0
    3.0870    0.8680   -0.5670 C   0  0  0  0  0  0  0  0  0  0  0  0
    2.4860   -1.1610   -1.7740 C   0  0  0  0  0  0  0  0  0  0  0  0
    2.8120    0.8110    3.2800 C   0  0  0  0  0  0  0  0  0  0  0  0
    2.3790   -1.2480    2.0830 C   0  0  0  0  0  0  0  0  0  0  0  0
   -3.2190    1.1360   -0.2700 C   0  0  0  0  0  0  0  0  0  0  0  0
   -1.3180    1.5500   -1.7110 C   0  0  0  0  0  0  0  0  0  0  0  0
   -1.6840   -2.2640   -2.2080 C   0  0  0  0  0  0  0  0  0  0  0  0
   -1.3460   -2.2100    0.1890 C   0  0  0  0  0  0  0  0  0  0  0  0
    4.4860    0.6190   -0.5620 C   0  0  0  0  0  0  0  0  0  0  0  0
    2.6720    2.2050   -0.3240 C   0  0  0  0  0  0  0  0  0  0  0  0
    3.9360    0.2250    3.8900 C   0  0  0  0  0  0  0  0  0  0  0  0
    3.4990   -1.8420    2.6920 C   0  0  0  0  0  0  0  0  0  0  0  0
   -4.0940    1.4480   -1.3260 C   0  0  0  0  0  0  0  0  0  0  0  0
   -2.1870    1.8660   -2.7710 C   0  0  0  0  0  0  0  0  0  0  0  0
   -2.8680   -3.0030   -2.0280 C   0  0  0  0  0  0  0  0  0  0  0  0
   -2.5270   -2.9510    0.3750 C   0  0  0  0  0  0  0  0  0  0  0  0
    5.4180    1.6400   -0.2990 C   0  0  0  0  0  0  0  0  0  0  0  0
    3.5990    3.2310   -0.0630 C   0  0  0  0  0  0  0  0  0  0  0  0
    4.2820   -1.1030    3.5930 C   0  0  0  0  0  0  0  0  0  0  0  0
   -3.5770    1.8110   -2.5800 C   0  0  0  0  0  0  0  0  0  0  0  0
   -3.2920   -3.3440   -0.7340 C   0  0  0  0  0  0  0  0  0  0  0  0
    4.9730    2.9470   -0.0450 C   0  0  0  0  0  0  0  0  0  0  0  0
    0.1190    1.4400    3.5680 H   0  0  0  0  0  0  0  0  0  0  0  0
    0.3430    2.6380    2.2560 H   0  0  0  0  0  0  0  0  0  0  0  0
   -1.9520    2.0980    2.0090 H   0  0  0  0  0  0  0  0  0  0  0  0
   -1.7240    0.3930    2.5050 H   0  0  0  0  0  0  0  0  0  0  0  0
    1.0340   -2.4010   -2.7830 H   0  0  0  0  0  0  0  0  0  0  0  0
    0.9380   -0.6700   -3.2280 H   0  0  0  0  0  0  0  0  0  0  0  0
    3.2000   -0.8490   -2.5430 H   0  0  0  0  0  0  0  0  0  0  0  0
    2.8440   -2.0750   -1.2880 H   0  0  0  0  0  0  0  0  0  0  0  0
    2.6090    1.7900    3.4950 H   0  0  0  0  0  0  0  0  0  0  0  0
    1.8110   -1.8320    1.4680 H   0  0  0  0  0  0  0  0  0  0  0  0
   -3.6300    0.8440    0.6200 H   0  0  0  0  0  0  0  0  0  0  0  0
   -0.3160    1.6440   -1.8780 H   0  0  0  0  0  0  0  0  0  0  0  0
   -1.4230   -2.0060   -3.1620 H   0  0  0  0  0  0  0  0  0  0  0  0
   -0.7960   -1.9820    1.0180 H   0  0  0  0  0  0  0  0  0  0  0  0
    4.8430   -0.3270   -0.7090 H   0  0  0  0  0  0  0  0  0  0  0  0
    1.6850    2.4610   -0.3700 H   0  0  0  0  0  0  0  0  0  0  0  0
    4.5050    0.7670    4.5440 H   0  0  0  0  0  0  0  0  0  0  0  0
    3.7400   -2.8140    2.4860 H   0  0  0  0  0  0  0  0  0  0  0  0
   -5.1050    1.4040   -1.1850 H   0  0  0  0  0  0  0  0  0  0  0  0
   -1.8080    2.1450   -3.6790 H   0  0  0  0  0  0  0  0  0  0  0  0
   -3.4240   -3.2860   -2.8380 H   0  0  0  0  0  0  0  0  0  0  0  0
   -2.8250   -3.2110    1.3180 H   0  0  0  0  0  0  0  0  0  0  0  0
    6.4180    1.4290   -0.2840 H   0  0  0  0  0  0  0  0  0  0  0  0
    3.2720    4.1850    0.1060 H   0  0  0  0  0  0  0  0  0  0  0  0
    5.0980   -1.5320    4.0360 H   0  0  0  0  0  0  0  0  0  0  0  0
   -4.2100    2.0390   -3.3500 H   0  0  0  0  0  0  0  0  0  0  0  0
   -4.1520   -3.8810   -0.6010 H   0  0  0  0  0  0  0  0  0  0  0  0
    5.6480    3.6910    0.1460 H   0  0  0  0  0  0  0  0  0  0  0  0
  1  4  1  0  0  0  0
  1  3  1  0  0  0  0
  1  2  1  0  0  0  0
  2  5  1  0  0  0  0
  2  6  1  0  0  0  0
  3  7  1  0  0  0  0
  3  8  1  0  0  0  0
  4 10  1  0  0  0  0
  4  9  1  0  0  0  0
  5 11  1  0  0  0  0
  5 12  1  0  0  0  0
  6 13  1  0  0  0  0
  6 14  1  0  0  0  0
  7 15  2  0  0  0  0
  7 16  1  0  0  0  0
  8 35  1  0  0  0  0
  8 10  1  0  0  0  0
  8 36  1  0  0  0  0
  9 17  2  0  0  0  0
  9 18  1  0  0  0  0
 10 37  1  0  0  0  0
 10 38  1  0  0  0  0
 11 20  2  0  0  0  0
 11 19  1  0  0  0  0
 12 14  1  0  0  0  0
 12 39  1  0  0  0  0
 12 40  1  0  0  0  0
 13 21  2  0  0  0  0
 13 22  1  0  0  0  0
 14 42  1  0  0  0  0
 14 41  1  0  0  0  0
 15 43  1  0  0  0  0
 15 23  1  0  0  0  0
 16 24  2  0  0  0  0
 16 44  1  0  0  0  0
 17 45  1  0  0  0  0
 17 25  1  0  0  0  0
 18 26  2  0  0  0  0
 18 46  1  0  0  0  0
 19 27  2  0  0  0  0
 19 47  1  0  0  0  0
 20 28  1  0  0  0  0
 20 48  1  0  0  0  0
 21 29  1  0  0  0  0
 21 49  1  0  0  0  0
 22 30  2  0  0  0  0
 22 50  1  0  0  0  0
 23 51  1  0  0  0  0
 23 31  2  0  0  0  0
 24 31  1  0  0  0  0
 24 52  1  0  0  0  0
 25 53  1  0  0  0  0
 25 32  2  0  0  0  0
 26 32  1  0  0  0  0
 26 54  1  0  0  0  0
 27 33  1  0  0  0  0
 27 55  1  0  0  0  0
 28 56  1  0  0  0  0
 28 33  2  0  0  0  0
 29 57  1  0  0  0  0
 29 34  2  0  0  0  0
 30 34  1  0  0  0  0
 30 58  1  0  0  0  0
 31 59  1  0  0  0  0
 32 60  1  0  0  0  0
 33 61  1  0  0  0  0
 34 62  1  0  0  0  0
M  END
