
  ACD/Labs06062116153D

 57 61  0  0  0  0  0  0  0  0  1 V2000
   23.0294   -7.0244   -0.6962 C   0  0  0  0  0  0  0  0  0  0  0  0
   23.5617   -8.2618   -0.6829 C   0  0  0  0  0  0  0  0  0  0  0  0
   23.7709   -5.8566   -0.6464 C   0  0  0  0  0  0  0  0  0  0  0  0
   21.7466   -6.9203   -0.7586 N   0  0  0  0  0  0  0  0  0  0  0  0
   24.9152   -8.5427   -0.6187 C   0  0  0  0  0  0  0  0  0  0  0  0
   22.7300   -9.2446   -0.7352 N   0  0  0  0  0  0  0  0  0  0  0  0
   24.1244   -5.1841   -1.8375 C   0  0  0  0  0  0  0  0  0  0  0  0
   24.2088   -5.3391    0.5938 C   0  0  0  0  0  0  0  0  0  0  0  0
   20.9520   -7.9349   -0.8083 C   0  0  0  0  0  0  0  0  0  0  0  0
   25.5317   -8.8039    0.6244 C   0  0  0  0  0  0  0  0  0  0  0  0
   25.7011   -8.5402   -1.7925 C   0  0  0  0  0  0  0  0  0  0  0  0
   21.5058   -9.0999   -0.7952 N   0  0  0  0  0  0  0  0  0  0  0  0
   24.9042   -4.0143   -1.7889 C   0  0  0  0  0  0  0  0  0  0  0  0
   24.9887   -4.1683    0.6394 C   0  0  0  0  0  0  0  0  0  0  0  0
   19.5755   -7.7676   -0.8801 C   0  0  0  0  0  0  0  0  0  0  0  0
   26.9144   -9.0576    0.6922 C   0  0  0  0  0  0  0  0  0  0  0  0
   27.0835   -8.7947   -1.7227 C   0  0  0  0  0  0  0  0  0  0  0  0
   25.3365   -3.4971   -0.5504 C   0  0  0  0  0  0  0  0  0  0  0  0
   18.6563   -8.7734   -0.4933 C   0  0  0  0  0  0  0  0  0  0  0  0
   19.0760   -6.5861   -1.3358 N   0  0  0  0  0  0  0  0  0  0  0  0
   27.6973   -9.0577   -0.4803 C   0  0  0  0  0  0  0  0  0  0  0  0
   26.3175   -2.0607   -0.4917 S   0  0  0  0  0  0  0  0  0  0  0  0
   17.2599   -8.5480   -0.5822 C   0  0  0  0  0  0  0  0  0  0  0  0
   17.7527   -6.3187   -1.4412 C   0  0  0  0  0  0  0  0  0  0  0  0
   29.4104   -9.3530   -0.4066 S   0  0  0  0  0  0  0  0  0  0  0  0
   26.0373   -1.1924    0.9312 O   0  0  0  0  0  0  0  0  0  0  0  0
   27.9460   -2.5110   -0.5280 O   0  0  0  0  0  0  0  0  0  0  0  0
   26.0113   -1.0529   -1.8136 O   0  0  0  0  0  0  0  0  0  0  0  0
   16.3268   -9.5555   -0.1972 C   0  0  0  0  0  0  0  0  0  0  0  0
   16.8151   -7.2954   -1.0665 C   0  0  0  0  0  0  0  0  0  0  0  0
   29.8847  -10.3558   -1.6812 O   0  0  0  0  0  0  0  0  0  0  0  0
   30.2264   -7.8820   -0.5673 O   0  0  0  0  0  0  0  0  0  0  0  0
   29.8705  -10.0717    1.0531 O   0  0  0  0  0  0  0  0  0  0  0  0
   15.2124   -9.2429    0.6201 C   0  0  0  0  0  0  0  0  0  0  0  0
   16.4889  -10.8983   -0.6175 C   0  0  0  0  0  0  0  0  0  0  0  0
   14.2925  -10.2360    1.0016 C   0  0  0  0  0  0  0  0  0  0  0  0
   15.5682  -11.8930   -0.2383 C   0  0  0  0  0  0  0  0  0  0  0  0
   14.4614  -11.5658    0.5696 C   0  0  0  0  0  0  0  0  0  0  0  0
   13.3299  -12.7992    1.0471 S   0  0  0  0  0  0  0  0  0  0  0  0
   13.1929  -13.9899   -0.1444 O   0  0  0  0  0  0  0  0  0  0  0  0
   13.8841  -13.5295    2.4666 O   0  0  0  0  0  0  0  0  0  0  0  0
   11.7983  -12.1475    1.3437 O   0  0  0  0  0  0  0  0  0  0  0  0
   23.8250   -5.5459   -2.7477 H   0  0  0  0  0  0  0  0  0  0  0  0
   23.9697   -5.8141    1.4690 H   0  0  0  0  0  0  0  0  0  0  0  0
   24.9829   -8.8020    1.4884 H   0  0  0  0  0  0  0  0  0  0  0  0
   25.2753   -8.3474   -2.7037 H   0  0  0  0  0  0  0  0  0  0  0  0
   25.1564   -3.5468   -2.6624 H   0  0  0  0  0  0  0  0  0  0  0  0
   25.3032   -3.8134    1.5455 H   0  0  0  0  0  0  0  0  0  0  0  0
   27.3441   -9.2357    1.6027 H   0  0  0  0  0  0  0  0  0  0  0  0
   27.6375   -8.7824   -2.5815 H   0  0  0  0  0  0  0  0  0  0  0  0
   19.0033   -9.6636   -0.1251 H   0  0  0  0  0  0  0  0  0  0  0  0
   17.4454   -5.4114   -1.7954 H   0  0  0  0  0  0  0  0  0  0  0  0
   15.8177   -7.0898   -1.1632 H   0  0  0  0  0  0  0  0  0  0  0  0
   15.0703   -8.2879    0.9598 H   0  0  0  0  0  0  0  0  0  0  0  0
   17.2736  -11.1635   -1.2188 H   0  0  0  0  0  0  0  0  0  0  0  0
   13.5029   -9.9822    1.5993 H   0  0  0  0  0  0  0  0  0  0  0  0
   15.7111  -12.8539   -0.5572 H   0  0  0  0  0  0  0  0  0  0  0  0
  1  3  1  0  0  0  0
  1  2  1  0  0  0  0
  1  4  2  0  0  0  0
  2  5  1  0  0  0  0
  2  6  2  0  0  0  0
  3  8  2  0  0  0  0
  3  7  1  0  0  0  0
  4  9  1  0  0  0  0
  5 10  2  0  0  0  0
  5 11  1  0  0  0  0
  6 12  1  0  0  0  0
  7 13  2  0  0  0  0
  7 43  1  0  0  0  0
  8 44  1  0  0  0  0
  8 14  1  0  0  0  0
  9 12  2  0  0  0  0
  9 15  1  0  0  0  0
 10 16  1  0  0  0  0
 10 45  1  0  0  0  0
 11 17  2  0  0  0  0
 11 46  1  0  0  0  0
 13 18  1  0  0  0  0
 13 47  1  0  0  0  0
 14 48  1  0  0  0  0
 14 18  2  0  0  0  0
 15 19  2  0  0  0  0
 15 20  1  0  0  0  0
 16 49  1  0  0  0  0
 16 21  2  0  0  0  0
 17 21  1  0  0  0  0
 17 50  1  0  0  0  0
 18 22  1  0  0  0  0
 19 51  1  0  0  0  0
 19 23  1  0  0  0  0
 20 24  2  0  0  0  0
 21 25  1  0  0  0  0
 22 27  2  0  0  0  0
 22 26  2  0  0  0  0
 22 28  1  0  0  0  0
 23 29  1  0  0  0  0
 23 30  2  0  0  0  0
 24 30  1  0  0  0  0
 24 52  1  0  0  0  0
 25 33  2  0  0  0  0
 25 31  2  0  0  0  0
 25 32  1  0  0  0  0
 29 34  2  0  0  0  0
 29 35  1  0  0  0  0
 30 53  1  0  0  0  0
 34 54  1  0  0  0  0
 34 36  1  0  0  0  0
 35 37  2  0  0  0  0
 35 55  1  0  0  0  0
 36 56  1  0  0  0  0
 36 38  2  0  0  0  0
 37 38  1  0  0  0  0
 37 57  1  0  0  0  0
 38 39  1  0  0  0  0
 39 41  2  0  0  0  0
 39 40  2  0  0  0  0
 39 42  1  0  0  0  0
M  END
