decoy-411
 OpenBabel06062114513D

 41 43  0  0  0  0  0  0  0  0999 V2000
    0.0370    1.4140    0.2540 C   0  0  0  0  0  0  0  0  0  0  0  0
    0.0370    0.0630   -0.1840 C   0  0  0  0  0  0  0  0  0  0  0  0
    1.2010    2.1590    0.2900 O   0  0  0  0  0  0  0  0  0  0  0  0
   -1.1580    2.0350    0.6580 C   0  0  0  0  0  0  0  0  0  0  0  0
   -1.1870   -0.6590   -0.1720 C   0  0  0  0  0  0  0  0  0  0  0  0
    1.2730   -0.4520   -0.6010 C   0  0  0  0  0  0  0  0  0  0  0  0
    2.3690    1.5540   -0.0410 C   0  0  0  0  0  0  0  0  0  0  0  0
   -2.3730    1.3260    0.6320 C   0  0  0  0  0  0  0  0  0  0  0  0
   -2.3820   -0.0330    0.2500 C   0  0  0  0  0  0  0  0  0  0  0  0
   -1.2640   -1.9620   -0.5480 O   0  0  0  0  0  0  0  0  0  0  0  0
    2.4170    0.2810   -0.4870 C   0  0  0  0  0  0  0  0  0  0  0  0
    1.3530   -1.5340   -1.1680 O   0  0  0  0  0  0  0  0  0  0  0  0
    3.5140    2.3240    0.0710 C   0  0  0  0  0  0  0  0  0  0  0  0
   -3.5240    1.9430    1.0420 O   0  0  0  0  0  0  0  0  0  0  0  0
   -3.5640   -0.7260    0.2350 O   0  0  0  0  0  0  0  0  0  0  0  0
    3.6870    3.4600   -0.7520 C   0  0  0  0  0  0  0  0  0  0  0  0
    4.5100    2.0060    1.0230 C   0  0  0  0  0  0  0  0  0  0  0  0
   -4.2310    2.5930   -0.0280 C   0  0  0  0  0  0  0  0  0  0  0  0
   -3.8580   -1.3780    1.4830 C   0  0  0  0  0  0  0  0  0  0  0  0
    4.8440    4.2580   -0.6380 C   0  0  0  0  0  0  0  0  0  0  0  0
    5.6640    2.8020    1.1370 C   0  0  0  0  0  0  0  0  0  0  0  0
    5.8450    3.9200    0.2980 C   0  0  0  0  0  0  0  0  0  0  0  0
    5.0020    5.3530   -1.4240 O   0  0  0  0  0  0  0  0  0  0  0  0
    6.9580    4.7040    0.4400 O   0  0  0  0  0  0  0  0  0  0  0  0
    8.0630    4.2720   -0.3730 C   0  0  0  0  0  0  0  0  0  0  0  0
   -1.1460    3.0100    0.9660 H   0  0  0  0  0  0  0  0  0  0  0  0
   -0.4480   -2.3830   -0.2070 H   0  0  0  0  0  0  0  0  0  0  0  0
    3.2910   -0.1240   -0.7440 H   0  0  0  0  0  0  0  0  0  0  0  0
    2.9720    3.7130   -1.4390 H   0  0  0  0  0  0  0  0  0  0  0  0
    4.3990    1.1980    1.6420 H   0  0  0  0  0  0  0  0  0  0  0  0
   -5.1290    3.0510    0.3880 H   0  0  0  0  0  0  0  0  0  0  0  0
   -3.6260    3.3810   -0.4830 H   0  0  0  0  0  0  0  0  0  0  0  0
   -4.5370    1.8780   -0.7950 H   0  0  0  0  0  0  0  0  0  0  0  0
   -4.8080   -1.9020    1.3770 H   0  0  0  0  0  0  0  0  0  0  0  0
   -3.0900   -2.1120    1.7390 H   0  0  0  0  0  0  0  0  0  0  0  0
   -3.9560   -0.6550    2.2970 H   0  0  0  0  0  0  0  0  0  0  0  0
    6.3740    2.5660    1.8330 H   0  0  0  0  0  0  0  0  0  0  0  0
    4.2010    5.3970   -1.9880 H   0  0  0  0  0  0  0  0  0  0  0  0
    8.8970    4.9510   -0.2000 H   0  0  0  0  0  0  0  0  0  0  0  0
    8.3840    3.2620   -0.1030 H   0  0  0  0  0  0  0  0  0  0  0  0
    7.8120    4.3030   -1.4360 H   0  0  0  0  0  0  0  0  0  0  0  0
  1  3  1  0  0  0  0
  1  4  2  0  0  0  0
  1  2  1  0  0  0  0
  2  5  2  0  0  0  0
  2  6  1  0  0  0  0
  3  7  1  0  0  0  0
  4 26  1  0  0  0  0
  4  8  1  0  0  0  0
  5  9  1  0  0  0  0
  5 10  1  0  0  0  0
  6 11  1  0  0  0  0
  6 12  2  0  0  0  0
  7 13  1  0  0  0  0
  7 11  2  0  0  0  0
  8 14  1  0  0  0  0
  8  9  2  0  0  0  0
  9 15  1  0  0  0  0
 10 27  1  0  0  0  0
 11 28  1  0  0  0  0
 13 17  2  0  0  0  0
 13 16  1  0  0  0  0
 14 18  1  0  0  0  0
 15 19  1  0  0  0  0
 16 20  2  0  0  0  0
 16 29  1  0  0  0  0
 17 21  1  0  0  0  0
 17 30  1  0  0  0  0
 18 31  1  0  0  0  0
 18 32  1  0  0  0  0
 18 33  1  0  0  0  0
 19 35  1  0  0  0  0
 19 36  1  0  0  0  0
 19 34  1  0  0  0  0
 20 22  1  0  0  0  0
 20 23  1  0  0  0  0
 21 37  1  0  0  0  0
 21 22  2  0  0  0  0
 22 24  1  0  0  0  0
 23 38  1  0  0  0  0
 24 25  1  0  0  0  0
 25 39  1  0  0  0  0
 25 40  1  0  0  0  0
 25 41  1  0  0  0  0
M  END
