decoy-715
 OpenBabel06062114513D

 58 60  0  0  0  0  0  0  0  0999 V2000
    0.2330    1.4210   -0.5390 C   0  0  0  0  0  0  0  0  0  0  0  0
    0.2520   -0.0140   -0.5310 C   0  0  0  0  0  0  0  0  0  0  0  0
    1.3890    2.1540   -0.1410 C   0  0  0  0  0  0  0  0  0  0  0  0
   -0.9640    2.0660   -0.9080 C   0  0  0  0  0  0  0  0  0  0  0  0
    1.4270   -0.7120   -0.1270 C   0  0  0  0  0  0  0  0  0  0  0  0
   -0.9270   -0.6940   -0.8950 C   0  0  0  0  0  0  0  0  0  0  0  0
    2.5570    1.4380    0.2040 C   0  0  0  0  0  0  0  0  0  0  0  0
    1.3460    3.5150   -0.0760 N   0  0  0  0  0  0  0  0  0  0  0  0
   -2.1750    1.3810   -0.8000 C   0  0  0  0  0  0  0  0  0  0  0  0
   -0.9190    3.0230   -1.6710 O   0  0  0  0  0  0  0  0  0  0  0  0
    2.5750    0.0380    0.2110 C   0  0  0  0  0  0  0  0  0  0  0  0
    1.4210   -2.0730   -0.0480 N   0  0  0  0  0  0  0  0  0  0  0  0
   -2.1560   -0.0410   -0.7930 C   0  0  0  0  0  0  0  0  0  0  0  0
   -0.8560   -1.6570   -1.6480 O   0  0  0  0  0  0  0  0  0  0  0  0
    2.3940    4.4130    0.2960 C   0  0  0  0  0  0  0  0  0  0  0  0
   -3.4100    2.0620   -0.6880 C   0  0  0  0  0  0  0  0  0  0  0  0
    2.4920   -2.9390    0.3320 C   0  0  0  0  0  0  0  0  0  0  0  0
   -3.3720   -0.7540   -0.6740 C   0  0  0  0  0  0  0  0  0  0  0  0
    1.9000    5.8790    0.2280 C   0  0  0  0  0  0  0  0  0  0  0  0
   -4.6120    1.3410   -0.5740 C   0  0  0  0  0  0  0  0  0  0  0  0
    2.0380   -4.4170    0.2800 C   0  0  0  0  0  0  0  0  0  0  0  0
   -4.5930   -0.0640   -0.5670 C   0  0  0  0  0  0  0  0  0  0  0  0
    3.0010    6.8990    0.6220 C   0  0  0  0  0  0  0  0  0  0  0  0
    3.1660   -5.4030    0.6830 C   0  0  0  0  0  0  0  0  0  0  0  0
    2.5050    8.3670    0.5540 C   0  0  0  0  0  0  0  0  0  0  0  0
    2.7090   -6.8850    0.6300 C   0  0  0  0  0  0  0  0  0  0  0  0
    3.5990    9.3850    0.9450 C   0  0  0  0  0  0  0  0  0  0  0  0
    3.8290   -7.8690    1.0310 C   0  0  0  0  0  0  0  0  0  0  0  0
    3.4090    1.9290    0.4810 H   0  0  0  0  0  0  0  0  0  0  0  0
    0.5010    3.9320   -0.2990 H   0  0  0  0  0  0  0  0  0  0  0  0
    3.4410   -0.4260    0.4920 H   0  0  0  0  0  0  0  0  0  0  0  0
    0.5870   -2.5140   -0.2670 H   0  0  0  0  0  0  0  0  0  0  0  0
    2.7190    4.1880    1.3150 H   0  0  0  0  0  0  0  0  0  0  0  0
    3.2390    4.2850   -0.3870 H   0  0  0  0  0  0  0  0  0  0  0  0
   -3.4420    3.0850   -0.6830 H   0  0  0  0  0  0  0  0  0  0  0  0
    3.3330   -2.7950   -0.3510 H   0  0  0  0  0  0  0  0  0  0  0  0
    2.8110   -2.6950    1.3490 H   0  0  0  0  0  0  0  0  0  0  0  0
   -3.3770   -1.7770   -0.6590 H   0  0  0  0  0  0  0  0  0  0  0  0
    1.5630    6.0920   -0.7910 H   0  0  0  0  0  0  0  0  0  0  0  0
    1.0460    5.9960    0.9020 H   0  0  0  0  0  0  0  0  0  0  0  0
   -5.5010    1.8400   -0.4930 H   0  0  0  0  0  0  0  0  0  0  0  0
    1.1870   -4.5510    0.9550 H   0  0  0  0  0  0  0  0  0  0  0  0
    1.7060   -4.6500   -0.7370 H   0  0  0  0  0  0  0  0  0  0  0  0
   -5.4680   -0.5850   -0.4810 H   0  0  0  0  0  0  0  0  0  0  0  0
    3.3380    6.6840    1.6400 H   0  0  0  0  0  0  0  0  0  0  0  0
    3.8540    6.7800   -0.0520 H   0  0  0  0  0  0  0  0  0  0  0  0
    4.0150   -5.2690    0.0080 H   0  0  0  0  0  0  0  0  0  0  0  0
    3.4970   -5.1700    1.6990 H   0  0  0  0  0  0  0  0  0  0  0  0
    2.1700    8.5900   -0.4630 H   0  0  0  0  0  0  0  0  0  0  0  0
    1.6540    8.4940    1.2280 H   0  0  0  0  0  0  0  0  0  0  0  0
    1.8610   -7.0280    1.3060 H   0  0  0  0  0  0  0  0  0  0  0  0
    2.3800   -7.1270   -0.3840 H   0  0  0  0  0  0  0  0  0  0  0  0
    3.1990   10.3990    0.8810 H   0  0  0  0  0  0  0  0  0  0  0  0
    3.9350    9.2070    1.9680 H   0  0  0  0  0  0  0  0  0  0  0  0
    4.4530    9.3040    0.2700 H   0  0  0  0  0  0  0  0  0  0  0  0
    3.4570   -8.8940    0.9770 H   0  0  0  0  0  0  0  0  0  0  0  0
    4.6810   -7.7720    0.3560 H   0  0  0  0  0  0  0  0  0  0  0  0
    4.1610   -7.6730    2.0530 H   0  0  0  0  0  0  0  0  0  0  0  0
  1  2  2  0  0  0  0
  1  3  1  0  0  0  0
  1  4  1  0  0  0  0
  2  5  1  0  0  0  0
  2  6  1  0  0  0  0
  3  8  1  0  0  0  0
  3  7  2  0  0  0  0
  4  9  1  0  0  0  0
  4 10  2  0  0  0  0
  5 12  1  0  0  0  0
  5 11  2  0  0  0  0
  6 13  1  0  0  0  0
  6 14  2  0  0  0  0
  7 11  1  0  0  0  0
  7 29  1  0  0  0  0
  8 15  1  0  0  0  0
  8 30  1  0  0  0  0
  9 13  2  0  0  0  0
  9 16  1  0  0  0  0
 11 31  1  0  0  0  0
 12 17  1  0  0  0  0
 12 32  1  0  0  0  0
 13 18  1  0  0  0  0
 15 33  1  0  0  0  0
 15 19  1  0  0  0  0
 15 34  1  0  0  0  0
 16 35  1  0  0  0  0
 16 20  2  0  0  0  0
 17 37  1  0  0  0  0
 17 21  1  0  0  0  0
 17 36  1  0  0  0  0
 18 38  1  0  0  0  0
 18 22  2  0  0  0  0
 19 23  1  0  0  0  0
 19 40  1  0  0  0  0
 19 39  1  0  0  0  0
 20 22  1  0  0  0  0
 20 41  1  0  0  0  0
 21 24  1  0  0  0  0
 21 42  1  0  0  0  0
 21 43  1  0  0  0  0
 22 44  1  0  0  0  0
 23 45  1  0  0  0  0
 23 25  1  0  0  0  0
 23 46  1  0  0  0  0
 24 48  1  0  0  0  0
 24 26  1  0  0  0  0
 24 47  1  0  0  0  0
 25 27  1  0  0  0  0
 25 50  1  0  0  0  0
 25 49  1  0  0  0  0
 26 28  1  0  0  0  0
 26 51  1  0  0  0  0
 26 52  1  0  0  0  0
 27 54  1  0  0  0  0
 27 53  1  0  0  0  0
 27 55  1  0  0  0  0
 28 58  1  0  0  0  0
 28 56  1  0  0  0  0
 28 57  1  0  0  0  0
M  END
