decoy-825
 OpenBabel06062114513D

 65 69  0  0  0  0  0  0  0  0999 V2000
    2.1510    1.0870    0.2430 C   0  0  0  0  0  0  0  0  0  0  0  0
    3.4760    0.3060   -0.0200 C   0  0  0  0  0  0  0  0  0  0  0  0
    0.8830    0.2070    0.0030 C   0  0  0  0  0  0  0  0  0  0  0  0
    1.8810    1.7580    1.6070 C   0  0  0  0  0  0  0  0  0  0  0  0
    3.5310   -0.1650   -1.5240 C   0  0  0  0  0  0  0  0  0  0  0  0
    4.7430    1.1420    0.2980 C   0  0  0  0  0  0  0  0  0  0  0  0
   -0.2260    1.2370    0.3850 C   0  0  0  0  0  0  0  0  0  0  0  0
    0.8970   -0.2270   -1.4990 C   0  0  0  0  0  0  0  0  0  0  0  0
    0.7540   -1.0720    0.9170 C   0  0  0  0  0  0  0  0  0  0  0  0
    0.3460    1.9810    1.6240 C   0  0  0  0  0  0  0  0  0  0  0  0
    4.8320   -0.8610   -1.8470 C   0  0  0  0  0  0  0  0  0  0  0  0
    2.2210   -0.9480   -1.9050 C   0  0  0  0  0  0  0  0  0  0  0  0
    6.0160    0.2780    0.1200 C   0  0  0  0  0  0  0  0  0  0  0  0
   -1.5030    0.6390    0.6700 O   0  0  0  0  0  0  0  0  0  0  0  0
    6.0030   -0.6310   -1.0610 C   0  0  0  0  0  0  0  0  0  0  0  0
    4.9620   -1.6820   -2.9980 C   0  0  0  0  0  0  0  0  0  0  0  0
   -2.6950    0.8290    0.0450 C   0  0  0  0  0  0  0  0  0  0  0  0
    7.2100   -1.2970   -1.3780 C   0  0  0  0  0  0  0  0  0  0  0  0
    6.1720   -2.3230   -3.3130 C   0  0  0  0  0  0  0  0  0  0  0  0
   -3.8610    0.0740    0.5460 C   0  0  0  0  0  0  0  0  0  0  0  0
   -2.7990    1.6780   -1.0060 O   0  0  0  0  0  0  0  0  0  0  0  0
    7.2980   -2.1430   -2.4970 C   0  0  0  0  0  0  0  0  0  0  0  0
   -5.1880    0.3260   -0.2210 C   0  0  0  0  0  0  0  0  0  0  0  0
    8.4580   -2.7730   -2.8100 O   0  0  0  0  0  0  0  0  0  0  0  0
   -6.3810   -0.5290    0.2980 C   0  0  0  0  0  0  0  0  0  0  0  0
   -6.8480   -0.2040    1.7360 C   0  0  0  0  0  0  0  0  0  0  0  0
   -7.6700   -0.3410   -0.5310 C   0  0  0  0  0  0  0  0  0  0  0  0
   -8.3050   -0.7080    1.8230 C   0  0  0  0  0  0  0  0  0  0  0  0
   -8.8000   -0.8780    0.3680 C   0  0  0  0  0  0  0  0  0  0  0  0
    2.1520    1.9140   -0.4840 H   0  0  0  0  0  0  0  0  0  0  0  0
    3.5040   -0.5680    0.6340 H   0  0  0  0  0  0  0  0  0  0  0  0
    3.5300    0.7330   -2.1520 H   0  0  0  0  0  0  0  0  0  0  0  0
    2.1900    1.1010    2.4250 H   0  0  0  0  0  0  0  0  0  0  0  0
    2.4190    2.7050    1.6990 H   0  0  0  0  0  0  0  0  0  0  0  0
    4.7920    2.0100   -0.3680 H   0  0  0  0  0  0  0  0  0  0  0  0
    4.7120    1.5110    1.3260 H   0  0  0  0  0  0  0  0  0  0  0  0
   -0.3340    1.9680   -0.4260 H   0  0  0  0  0  0  0  0  0  0  0  0
    0.0470   -0.8840   -1.7070 H   0  0  0  0  0  0  0  0  0  0  0  0
    0.7810    0.6530   -2.1390 H   0  0  0  0  0  0  0  0  0  0  0  0
    1.5720   -1.7730    0.7710 H   0  0  0  0  0  0  0  0  0  0  0  0
   -0.1710   -1.6060    0.6880 H   0  0  0  0  0  0  0  0  0  0  0  0
    0.7310   -0.8140    1.9760 H   0  0  0  0  0  0  0  0  0  0  0  0
   -0.0780    1.5810    2.5490 H   0  0  0  0  0  0  0  0  0  0  0  0
    0.1060    3.0470    1.5710 H   0  0  0  0  0  0  0  0  0  0  0  0
    2.1700   -1.0820   -2.9870 H   0  0  0  0  0  0  0  0  0  0  0  0
    2.2520   -1.9430   -1.4570 H   0  0  0  0  0  0  0  0  0  0  0  0
    6.8700    0.9570    0.0470 H   0  0  0  0  0  0  0  0  0  0  0  0
    6.1530   -0.3350    1.0150 H   0  0  0  0  0  0  0  0  0  0  0  0
    4.1790   -1.8300   -3.6320 H   0  0  0  0  0  0  0  0  0  0  0  0
    8.0430   -1.1560   -0.8000 H   0  0  0  0  0  0  0  0  0  0  0  0
    6.2310   -2.9200   -4.1410 H   0  0  0  0  0  0  0  0  0  0  0  0
   -3.6170   -0.9900    0.4920 H   0  0  0  0  0  0  0  0  0  0  0  0
   -3.9990    0.3380    1.5970 H   0  0  0  0  0  0  0  0  0  0  0  0
   -5.4440    1.3870   -0.1540 H   0  0  0  0  0  0  0  0  0  0  0  0
   -5.0290    0.0850   -1.2760 H   0  0  0  0  0  0  0  0  0  0  0  0
    9.1010   -2.5080   -2.1200 H   0  0  0  0  0  0  0  0  0  0  0  0
   -6.0980   -1.5870    0.2520 H   0  0  0  0  0  0  0  0  0  0  0  0
   -6.2150   -0.6940    2.4800 H   0  0  0  0  0  0  0  0  0  0  0  0
   -6.8230    0.8760    1.9090 H   0  0  0  0  0  0  0  0  0  0  0  0
   -7.8420    0.7200   -0.7410 H   0  0  0  0  0  0  0  0  0  0  0  0
   -7.6210   -0.8850   -1.4780 H   0  0  0  0  0  0  0  0  0  0  0  0
   -8.3440   -1.6680    2.3470 H   0  0  0  0  0  0  0  0  0  0  0  0
   -8.9270    0.0090    2.3670 H   0  0  0  0  0  0  0  0  0  0  0  0
   -9.7310   -0.3300    0.1950 H   0  0  0  0  0  0  0  0  0  0  0  0
   -8.9730   -1.9360    0.1530 H   0  0  0  0  0  0  0  0  0  0  0  0
  1  2  1  0  0  0  0
  1  4  1  0  0  0  0
  1  3  1  0  0  0  0
  1 30  1  0  0  0  0
  2  5  1  0  0  0  0
  2  6  1  0  0  0  0
  2 31  1  0  0  0  0
  3  9  1  0  0  0  0
  3  7  1  0  0  0  0
  3  8  1  0  0  0  0
  4 10  1  0  0  0  0
  4 34  1  0  0  0  0
  4 33  1  0  0  0  0
  5 32  1  0  0  0  0
  5 11  1  0  0  0  0
  5 12  1  0  0  0  0
  6 36  1  0  0  0  0
  6 13  1  0  0  0  0
  6 35  1  0  0  0  0
  7 14  1  0  0  0  0
  7 10  1  0  0  0  0
  7 37  1  0  0  0  0
  8 12  1  0  0  0  0
  8 38  1  0  0  0  0
  8 39  1  0  0  0  0
  9 42  1  0  0  0  0
  9 40  1  0  0  0  0
  9 41  1  0  0  0  0
 10 43  1  0  0  0  0
 10 44  1  0  0  0  0
 11 15  2  0  0  0  0
 11 16  1  0  0  0  0
 12 46  1  0  0  0  0
 12 45  1  0  0  0  0
 13 48  1  0  0  0  0
 13 15  1  0  0  0  0
 13 47  1  0  0  0  0
 14 17  1  0  0  0  0
 15 18  1  0  0  0  0
 16 19  2  0  0  0  0
 16 49  1  0  0  0  0
 17 20  1  0  0  0  0
 17 21  2  0  0  0  0
 18 50  1  0  0  0  0
 18 22  2  0  0  0  0
 19 22  1  0  0  0  0
 19 51  1  0  0  0  0
 20 53  1  0  0  0  0
 20 23  1  0  0  0  0
 20 52  1  0  0  0  0
 22 24  1  0  0  0  0
 23 54  1  0  0  0  0
 23 25  1  0  0  0  0
 23 55  1  0  0  0  0
 24 56  1  0  0  0  0
 25 26  1  0  0  0  0
 25 27  1  0  0  0  0
 25 57  1  0  0  0  0
 26 28  1  0  0  0  0
 26 59  1  0  0  0  0
 26 58  1  0  0  0  0
 27 29  1  0  0  0  0
 27 60  1  0  0  0  0
 27 61  1  0  0  0  0
 28 62  1  0  0  0  0
 28 63  1  0  0  0  0
 28 29  1  0  0  0  0
 29 64  1  0  0  0  0
 29 65  1  0  0  0  0
M  END
