decoy-932
 OpenBabel06062114513D

 56 55  0  0  0  0  0  0  0  0999 V2000
    0.0010    1.5360    0.0090 C   0  0  0  0  0  0  0  0  0  0  0  0
   -0.0200   -0.0150    0.0010 C   0  0  0  0  0  0  0  0  0  0  0  0
    1.4420    2.1140   -0.0010 C   0  0  0  0  0  0  0  0  0  0  0  0
   -1.4600   -0.5930    0.0120 C   0  0  0  0  0  0  0  0  0  0  0  0
    1.4630    3.6650    0.0070 C   0  0  0  0  0  0  0  0  0  0  0  0
   -1.4810   -2.1450    0.0030 C   0  0  0  0  0  0  0  0  0  0  0  0
    2.9030    4.2430   -0.0040 C   0  0  0  0  0  0  0  0  0  0  0  0
   -2.9210   -2.7220    0.0140 C   0  0  0  0  0  0  0  0  0  0  0  0
    2.9240    5.7940    0.0040 C   0  0  0  0  0  0  0  0  0  0  0  0
   -2.9420   -4.2740    0.0060 C   0  0  0  0  0  0  0  0  0  0  0  0
    4.3650    6.3720   -0.0060 C   0  0  0  0  0  0  0  0  0  0  0  0
   -4.3820   -4.8520    0.0170 C   0  0  0  0  0  0  0  0  0  0  0  0
    4.3860    7.9230    0.0020 C   0  0  0  0  0  0  0  0  0  0  0  0
   -4.4030   -6.4030    0.0080 C   0  0  0  0  0  0  0  0  0  0  0  0
    5.8260    8.4990   -0.0090 C   0  0  0  0  0  0  0  0  0  0  0  0
   -5.8430   -6.9800    0.0190 C   0  0  0  0  0  0  0  0  0  0  0  0
    5.8490   10.0440   -0.0010 C   0  0  0  0  0  0  0  0  0  0  0  0
   -5.8670   -8.5240    0.0110 C   0  0  0  0  0  0  0  0  0  0  0  0
    7.6670   10.6910   -0.0150 Br  0  0  0  0  0  0  0  0  0  0  0  0
   -0.5360    1.9040   -0.8690 H   0  0  0  0  0  0  0  0  0  0  0  0
   -0.5190    1.8940    0.9020 H   0  0  0  0  0  0  0  0  0  0  0  0
    0.5010   -0.3730   -0.8920 H   0  0  0  0  0  0  0  0  0  0  0  0
    0.5180   -0.3830    0.8800 H   0  0  0  0  0  0  0  0  0  0  0  0
    1.9790    1.7460    0.8770 H   0  0  0  0  0  0  0  0  0  0  0  0
    1.9620    1.7560   -0.8940 H   0  0  0  0  0  0  0  0  0  0  0  0
   -1.9800   -0.2350    0.9050 H   0  0  0  0  0  0  0  0  0  0  0  0
   -1.9970   -0.2250   -0.8670 H   0  0  0  0  0  0  0  0  0  0  0  0
    0.9250    4.0330   -0.8720 H   0  0  0  0  0  0  0  0  0  0  0  0
    0.9430    4.0240    0.9000 H   0  0  0  0  0  0  0  0  0  0  0  0
   -0.9600   -2.5020   -0.8900 H   0  0  0  0  0  0  0  0  0  0  0  0
   -0.9430   -2.5120    0.8820 H   0  0  0  0  0  0  0  0  0  0  0  0
    3.4410    3.8750    0.8750 H   0  0  0  0  0  0  0  0  0  0  0  0
    3.4230    3.8840   -0.8970 H   0  0  0  0  0  0  0  0  0  0  0  0
   -3.4410   -2.3640    0.9070 H   0  0  0  0  0  0  0  0  0  0  0  0
   -3.4580   -2.3540   -0.8640 H   0  0  0  0  0  0  0  0  0  0  0  0
    2.3870    6.1620   -0.8740 H   0  0  0  0  0  0  0  0  0  0  0  0
    2.4040    6.1530    0.8970 H   0  0  0  0  0  0  0  0  0  0  0  0
   -2.4210   -4.6320   -0.8870 H   0  0  0  0  0  0  0  0  0  0  0  0
   -2.4040   -4.6420    0.8840 H   0  0  0  0  0  0  0  0  0  0  0  0
    4.9020    6.0040    0.8720 H   0  0  0  0  0  0  0  0  0  0  0  0
    4.8850    6.0130   -0.8990 H   0  0  0  0  0  0  0  0  0  0  0  0
   -4.9020   -4.4940    0.9100 H   0  0  0  0  0  0  0  0  0  0  0  0
   -4.9200   -4.4840   -0.8620 H   0  0  0  0  0  0  0  0  0  0  0  0
    3.8490    8.2910   -0.8770 H   0  0  0  0  0  0  0  0  0  0  0  0
    3.8660    8.2820    0.8950 H   0  0  0  0  0  0  0  0  0  0  0  0
   -3.8830   -6.7620   -0.8850 H   0  0  0  0  0  0  0  0  0  0  0  0
   -3.8650   -6.7710    0.8870 H   0  0  0  0  0  0  0  0  0  0  0  0
    6.3670    8.1370    0.8700 H   0  0  0  0  0  0  0  0  0  0  0  0
    6.3490    8.1470   -0.9020 H   0  0  0  0  0  0  0  0  0  0  0  0
   -6.3680   -6.6280    0.9120 H   0  0  0  0  0  0  0  0  0  0  0  0
   -6.3850   -6.6180   -0.8590 H   0  0  0  0  0  0  0  0  0  0  0  0
    5.3360   10.4350   -0.8820 H   0  0  0  0  0  0  0  0  0  0  0  0
    5.3530   10.4250    0.8950 H   0  0  0  0  0  0  0  0  0  0  0  0
   -6.9000   -8.8770    0.0190 H   0  0  0  0  0  0  0  0  0  0  0  0
   -5.3750   -8.9080   -0.8850 H   0  0  0  0  0  0  0  0  0  0  0  0
   -5.3570   -8.9180    0.8920 H   0  0  0  0  0  0  0  0  0  0  0  0
  1 21  1  0  0  0  0
  1  2  1  0  0  0  0
  1  3  1  0  0  0  0
  1 20  1  0  0  0  0
  2  4  1  0  0  0  0
  2 23  1  0  0  0  0
  2 22  1  0  0  0  0
  3  5  1  0  0  0  0
  3 24  1  0  0  0  0
  3 25  1  0  0  0  0
  4 26  1  0  0  0  0
  4  6  1  0  0  0  0
  4 27  1  0  0  0  0
  5 29  1  0  0  0  0
  5  7  1  0  0  0  0
  5 28  1  0  0  0  0
  6  8  1  0  0  0  0
  6 31  1  0  0  0  0
  6 30  1  0  0  0  0
  7  9  1  0  0  0  0
  7 32  1  0  0  0  0
  7 33  1  0  0  0  0
  8 34  1  0  0  0  0
  8 10  1  0  0  0  0
  8 35  1  0  0  0  0
  9 37  1  0  0  0  0
  9 11  1  0  0  0  0
  9 36  1  0  0  0  0
 10 12  1  0  0  0  0
 10 39  1  0  0  0  0
 10 38  1  0  0  0  0
 11 13  1  0  0  0  0
 11 40  1  0  0  0  0
 11 41  1  0  0  0  0
 12 42  1  0  0  0  0
 12 14  1  0  0  0  0
 12 43  1  0  0  0  0
 13 45  1  0  0  0  0
 13 15  1  0  0  0  0
 13 44  1  0  0  0  0
 14 16  1  0  0  0  0
 14 47  1  0  0  0  0
 14 46  1  0  0  0  0
 15 17  1  0  0  0  0
 15 48  1  0  0  0  0
 15 49  1  0  0  0  0
 16 50  1  0  0  0  0
 16 18  1  0  0  0  0
 16 51  1  0  0  0  0
 17 53  1  0  0  0  0
 17 19  1  0  0  0  0
 17 52  1  0  0  0  0
 18 54  1  0  0  0  0
 18 56  1  0  0  0  0
 18 55  1  0  0  0  0
M  END
