decoy-630
 OpenBabel06062114513D

 35 35  0  0  0  0  0  0  0  0999 V2000
   -3.9640    0.0720    0.5220 C   0  0  0  0  0  0  0  0  0  0  0  0
   -2.7720    0.0260   -0.2340 C   0  0  0  0  0  0  0  0  0  0  0  0
   -3.9240    0.6330    1.8080 C   0  0  0  0  0  0  0  0  0  0  0  0
   -5.1860   -0.3910    0.1100 O   0  0  0  0  0  0  0  0  0  0  0  0
   -1.5090    0.5210    0.2300 C   0  0  0  0  0  0  0  0  0  0  0  0
   -2.7220    1.1340    2.3200 C   0  0  0  0  0  0  0  0  0  0  0  0
   -5.7130   -0.9900   -0.9960 C   0  0  0  0  0  0  0  0  0  0  0  0
   -1.5490    1.0770    1.5480 C   0  0  0  0  0  0  0  0  0  0  0  0
   -0.3480    0.4490   -0.5700 *   0  0  0  0  0  0  0  0  0  0  0  0
   -7.0410   -1.3150   -1.0310 N   0  0  0  0  0  0  0  0  0  0  0  0
   -4.9160   -1.2590   -2.0580 O   0  0  0  0  0  0  0  0  0  0  0  0
   -0.5670    1.1940   -1.8260 C   0  0  0  0  0  0  0  0  0  0  0  0
   -0.0630   -0.9630   -0.9000 C   0  0  0  0  0  0  0  0  0  0  0  0
    0.8770    1.0020    0.0510 C   0  0  0  0  0  0  0  0  0  0  0  0
   -7.5940   -1.9480   -2.2040 C   0  0  0  0  0  0  0  0  0  0  0  0
   -7.8800   -1.0220    0.1080 C   0  0  0  0  0  0  0  0  0  0  0  0
   -2.8310   -0.3860   -1.1600 H   0  0  0  0  0  0  0  0  0  0  0  0
   -4.7720    0.6790    2.3770 H   0  0  0  0  0  0  0  0  0  0  0  0
   -2.7000    1.5420    3.2580 H   0  0  0  0  0  0  0  0  0  0  0  0
   -0.7160    1.4620    1.9910 H   0  0  0  0  0  0  0  0  0  0  0  0
   -1.3750    0.7910   -2.4420 H   0  0  0  0  0  0  0  0  0  0  0  0
    0.3190    1.1900   -2.4710 H   0  0  0  0  0  0  0  0  0  0  0  0
   -0.8120    2.2430   -1.6280 H   0  0  0  0  0  0  0  0  0  0  0  0
    0.0790   -1.5620    0.0060 H   0  0  0  0  0  0  0  0  0  0  0  0
    0.8480   -1.0730   -1.4990 H   0  0  0  0  0  0  0  0  0  0  0  0
   -0.8510   -1.4480   -1.4810 H   0  0  0  0  0  0  0  0  0  0  0  0
    0.7680    2.0640    0.2920 H   0  0  0  0  0  0  0  0  0  0  0  0
    1.7540    0.9260   -0.6020 H   0  0  0  0  0  0  0  0  0  0  0  0
    1.1400    0.4750    0.9740 H   0  0  0  0  0  0  0  0  0  0  0  0
   -7.4590   -1.3020   -3.0740 H   0  0  0  0  0  0  0  0  0  0  0  0
   -8.6620   -2.1610   -2.1180 H   0  0  0  0  0  0  0  0  0  0  0  0
   -7.0860   -2.8970   -2.3880 H   0  0  0  0  0  0  0  0  0  0  0  0
   -7.5020   -1.5430    0.9910 H   0  0  0  0  0  0  0  0  0  0  0  0
   -8.9190   -1.3250   -0.0320 H   0  0  0  0  0  0  0  0  0  0  0  0
   -7.8760    0.0520    0.3050 H   0  0  0  0  0  0  0  0  0  0  0  0
  1  3  2  0  0  0  0
  1  2  1  0  0  0  0
  1  4  1  0  0  0  0
  2  5  2  0  0  0  0
  2 17  1  0  0  0  0
  3  6  1  0  0  0  0
  3 18  1  0  0  0  0
  4  7  1  0  0  0  0
  5  8  1  0  0  0  0
  5  9  1  0  0  0  0
  6 19  1  0  0  0  0
  6  8  2  0  0  0  0
  7 10  1  0  0  0  0
  7 11  2  0  0  0  0
  8 20  1  0  0  0  0
  9 14  1  0  0  0  0
  9 12  1  0  0  0  0
  9 13  1  0  0  0  0
 10 16  1  0  0  0  0
 10 15  1  0  0  0  0
 12 23  1  0  0  0  0
 12 21  1  0  0  0  0
 12 22  1  0  0  0  0
 13 24  1  0  0  0  0
 13 25  1  0  0  0  0
 13 26  1  0  0  0  0
 14 27  1  0  0  0  0
 14 29  1  0  0  0  0
 14 28  1  0  0  0  0
 15 31  1  0  0  0  0
 15 30  1  0  0  0  0
 15 32  1  0  0  0  0
 16 35  1  0  0  0  0
 16 33  1  0  0  0  0
 16 34  1  0  0  0  0
M  END
