decoy-935
 OpenBabel06062114513D

 48 51  0  0  0  0  0  0  0  0999 V2000
    0.6340    1.0580   -0.1160 C   0  0  0  0  0  0  0  0  0  0  0  0
    0.8660   -0.4920   -0.4150 C   0  0  0  0  0  0  0  0  0  0  0  0
    1.9910    1.8700   -0.0030 C   0  0  0  0  0  0  0  0  0  0  0  0
   -0.2680    1.4450    0.9900 C   0  0  0  0  0  0  0  0  0  0  0  0
    1.8040   -0.5790   -1.5860 C   0  0  0  0  0  0  0  0  0  0  0  0
   -0.5060   -1.2280   -0.7350 C   0  0  0  0  0  0  0  0  0  0  0  0
    1.5010   -1.2500    0.8080 C   0  0  0  0  0  0  0  0  0  0  0  0
    1.6740    3.3910    0.1800 C   0  0  0  0  0  0  0  0  0  0  0  0
    2.9000    1.6080   -1.2380 C   0  0  0  0  0  0  0  0  0  0  0  0
   -0.5510    2.8630    1.2390 C   0  0  0  0  0  0  0  0  0  0  0  0
   -0.6990    0.6340    1.7980 O   0  0  0  0  0  0  0  0  0  0  0  0
    3.1080    0.0940   -1.4870 C   0  0  0  0  0  0  0  0  0  0  0  0
    1.4380   -1.1070   -2.7800 C   0  0  0  0  0  0  0  0  0  0  0  0
   -0.9280   -1.1080   -2.2190 C   0  0  0  0  0  0  0  0  0  0  0  0
    0.7870    3.6510    1.4420 C   0  0  0  0  0  0  0  0  0  0  0  0
    2.7990    4.4410    0.2880 C   0  0  0  0  0  0  0  0  0  0  0  0
    0.1820   -1.5410   -3.0450 C   0  0  0  0  0  0  0  0  0  0  0  0
    0.6830    5.2050    1.3650 C   0  0  0  0  0  0  0  0  0  0  0  0
    1.4250    3.2300    2.8210 C   0  0  0  0  0  0  0  0  0  0  0  0
    2.1000    5.6710    0.9260 C   0  0  0  0  0  0  0  0  0  0  0  0
   -0.0110   -2.3270   -3.9630 O   0  0  0  0  0  0  0  0  0  0  0  0
    0.2590    5.8400    2.5710 O   0  0  0  0  0  0  0  0  0  0  0  0
    0.1300    1.4420   -1.0100 H   0  0  0  0  0  0  0  0  0  0  0  0
    2.5510    1.5360    0.8720 H   0  0  0  0  0  0  0  0  0  0  0  0
    1.1030    3.6770   -0.7150 H   0  0  0  0  0  0  0  0  0  0  0  0
   -0.4230   -2.2990   -0.5210 H   0  0  0  0  0  0  0  0  0  0  0  0
   -1.3230   -0.8550   -0.1170 H   0  0  0  0  0  0  0  0  0  0  0  0
    2.3590   -0.7270    1.2270 H   0  0  0  0  0  0  0  0  0  0  0  0
    0.7800   -1.3840    1.6150 H   0  0  0  0  0  0  0  0  0  0  0  0
    1.8370   -2.2460    0.5060 H   0  0  0  0  0  0  0  0  0  0  0  0
    2.4530    2.0580   -2.1300 H   0  0  0  0  0  0  0  0  0  0  0  0
    3.8770    2.0750   -1.0830 H   0  0  0  0  0  0  0  0  0  0  0  0
   -1.0990    3.2570    0.3790 H   0  0  0  0  0  0  0  0  0  0  0  0
   -1.1950    2.9960    2.1130 H   0  0  0  0  0  0  0  0  0  0  0  0
    3.6930   -0.3390   -0.6740 H   0  0  0  0  0  0  0  0  0  0  0  0
    3.7170   -0.0150   -2.3910 H   0  0  0  0  0  0  0  0  0  0  0  0
    2.0990   -1.1500   -3.5240 H   0  0  0  0  0  0  0  0  0  0  0  0
   -1.8220   -1.7120   -2.4020 H   0  0  0  0  0  0  0  0  0  0  0  0
   -1.1690   -0.0690   -2.4560 H   0  0  0  0  0  0  0  0  0  0  0  0
    3.6080    4.0750    0.9250 H   0  0  0  0  0  0  0  0  0  0  0  0
    3.2120    4.6840   -0.6950 H   0  0  0  0  0  0  0  0  0  0  0  0
   -0.0350    5.4900    0.5880 H   0  0  0  0  0  0  0  0  0  0  0  0
    1.5940    2.1550    2.8830 H   0  0  0  0  0  0  0  0  0  0  0  0
    2.3810    3.7240    2.9970 H   0  0  0  0  0  0  0  0  0  0  0  0
    0.7580    3.4980    3.6420 H   0  0  0  0  0  0  0  0  0  0  0  0
    2.6780    6.0220    1.7850 H   0  0  0  0  0  0  0  0  0  0  0  0
    2.0230    6.4910    0.2060 H   0  0  0  0  0  0  0  0  0  0  0  0
   -0.6380    5.4840    2.7410 H   0  0  0  0  0  0  0  0  0  0  0  0
  1  2  1  0  0  0  0
  1  4  1  0  0  0  0
  1  3  1  0  0  0  0
  1 23  1  0  0  0  0
  2  7  1  0  0  0  0
  2  5  1  0  0  0  0
  2  6  1  0  0  0  0
  3 24  1  0  0  0  0
  3  8  1  0  0  0  0
  3  9  1  0  0  0  0
  4 10  1  0  0  0  0
  4 11  2  0  0  0  0
  5 12  1  0  0  0  0
  5 13  2  0  0  0  0
  6 26  1  0  0  0  0
  6 27  1  0  0  0  0
  6 14  1  0  0  0  0
  7 28  1  0  0  0  0
  7 29  1  0  0  0  0
  7 30  1  0  0  0  0
  8 16  1  0  0  0  0
  8 15  1  0  0  0  0
  8 25  1  0  0  0  0
  9 32  1  0  0  0  0
  9 12  1  0  0  0  0
  9 31  1  0  0  0  0
 10 15  1  0  0  0  0
 10 34  1  0  0  0  0
 10 33  1  0  0  0  0
 12 35  1  0  0  0  0
 12 36  1  0  0  0  0
 13 17  1  0  0  0  0
 13 37  1  0  0  0  0
 14 17  1  0  0  0  0
 14 38  1  0  0  0  0
 14 39  1  0  0  0  0
 15 19  1  0  0  0  0
 15 18  1  0  0  0  0
 16 40  1  0  0  0  0
 16 20  1  0  0  0  0
 16 41  1  0  0  0  0
 17 21  2  0  0  0  0
 18 22  1  0  0  0  0
 18 20  1  0  0  0  0
 18 42  1  0  0  0  0
 19 43  1  0  0  0  0
 19 44  1  0  0  0  0
 19 45  1  0  0  0  0
 20 46  1  0  0  0  0
 20 47  1  0  0  0  0
 22 48  1  0  0  0  0
M  END
