decoy-747
 OpenBabel06062114513D

 42 44  0  0  0  0  0  0  0  0999 V2000
    0.2210    1.3420    0.3930 C   0  0  0  0  0  0  0  0  0  0  0  0
    0.0420   -0.1140    0.0860 C   0  0  0  0  0  0  0  0  0  0  0  0
    1.4000    2.0380    0.0090 C   0  0  0  0  0  0  0  0  0  0  0  0
   -0.7990    2.0480    1.0760 C   0  0  0  0  0  0  0  0  0  0  0  0
   -1.0960   -0.3690   -0.9690 C   0  0  0  0  0  0  0  0  0  0  0  0
    1.3670   -0.7960   -0.1420 C   0  0  0  0  0  0  0  0  0  0  0  0
    2.5350    1.3570   -0.6670 C   0  0  0  0  0  0  0  0  0  0  0  0
    1.5280    3.4120    0.3180 C   0  0  0  0  0  0  0  0  0  0  0  0
   -0.6660    3.4190    1.3690 C   0  0  0  0  0  0  0  0  0  0  0  0
   -0.8690    0.1280   -2.3570 C   0  0  0  0  0  0  0  0  0  0  0  0
    2.2480   -0.0950   -1.1210 C   0  0  0  0  0  0  0  0  0  0  0  0
    1.2980   -2.2660   -0.3830 C   0  0  0  0  0  0  0  0  0  0  0  0
    0.5010    4.1030    0.9870 C   0  0  0  0  0  0  0  0  0  0  0  0
   -1.6550    4.0830    2.0210 O   0  0  0  0  0  0  0  0  0  0  0  0
   -0.6540   -0.7740   -3.4270 C   0  0  0  0  0  0  0  0  0  0  0  0
   -0.9020    1.5120   -2.6470 C   0  0  0  0  0  0  0  0  0  0  0  0
    0.6330    5.4240    1.2740 O   0  0  0  0  0  0  0  0  0  0  0  0
   -0.4340   -0.3090   -4.7390 C   0  0  0  0  0  0  0  0  0  0  0  0
   -0.6830    1.9820   -3.9540 C   0  0  0  0  0  0  0  0  0  0  0  0
   -0.4440    1.0760   -5.0020 C   0  0  0  0  0  0  0  0  0  0  0  0
   -0.2150   -1.1900   -5.7490 O   0  0  0  0  0  0  0  0  0  0  0  0
   -0.2370    1.5640   -6.2520 O   0  0  0  0  0  0  0  0  0  0  0  0
   -0.3220   -0.5580    1.0190 H   0  0  0  0  0  0  0  0  0  0  0  0
   -1.6500    1.5630    1.3690 H   0  0  0  0  0  0  0  0  0  0  0  0
   -1.2940   -1.4430   -0.9900 H   0  0  0  0  0  0  0  0  0  0  0  0
   -2.0260    0.0790   -0.6090 H   0  0  0  0  0  0  0  0  0  0  0  0
    2.8360    1.9350   -1.5450 H   0  0  0  0  0  0  0  0  0  0  0  0
    3.3760    1.3460    0.0320 H   0  0  0  0  0  0  0  0  0  0  0  0
    2.3780    3.9190    0.0550 H   0  0  0  0  0  0  0  0  0  0  0  0
    3.2070   -0.6150   -1.2080 H   0  0  0  0  0  0  0  0  0  0  0  0
    1.7970   -0.0870   -2.1140 H   0  0  0  0  0  0  0  0  0  0  0  0
    2.2910   -2.7070   -0.2790 H   0  0  0  0  0  0  0  0  0  0  0  0
    0.6490   -2.7450    0.3540 H   0  0  0  0  0  0  0  0  0  0  0  0
    0.9240   -2.4920   -1.3820 H   0  0  0  0  0  0  0  0  0  0  0  0
   -2.3590    3.4210    2.1860 H   0  0  0  0  0  0  0  0  0  0  0  0
   -0.6470   -1.7820   -3.2550 H   0  0  0  0  0  0  0  0  0  0  0  0
   -1.0950    2.1930   -1.9100 H   0  0  0  0  0  0  0  0  0  0  0  0
    1.5090    5.6890    0.9220 H   0  0  0  0  0  0  0  0  0  0  0  0
   -0.7050    2.9880   -4.1400 H   0  0  0  0  0  0  0  0  0  0  0  0
   -0.2510   -2.0810   -5.3420 H   0  0  0  0  0  0  0  0  0  0  0  0
   -0.0910    0.7850   -6.8280 H   0  0  0  0  0  0  0  0  0  0  0  0
    1.8570   -0.7080    0.7520 H   0  0  0  0  0  0  0  0  0  0  0  0
  1  4  2  0  0  0  0
  1  2  1  0  0  0  0
  1  3  1  0  0  0  0
  2 23  1  0  0  0  0
  2  5  1  0  0  0  0
  2  6  1  0  0  0  0
  3  8  2  0  0  0  0
  3  7  1  0  0  0  0
  4  9  1  0  0  0  0
  4 24  1  0  0  0  0
  5 26  1  0  0  0  0
  5 10  1  0  0  0  0
  5 25  1  0  0  0  0
  6 42  1  0  0  0  0
  6 11  1  0  0  0  0
  6 12  1  0  0  0  0
  7 28  1  0  0  0  0
  7 11  1  0  0  0  0
  7 27  1  0  0  0  0
  8 13  1  0  0  0  0
  8 29  1  0  0  0  0
  9 14  1  0  0  0  0
  9 13  2  0  0  0  0
 10 15  2  0  0  0  0
 10 16  1  0  0  0  0
 11 30  1  0  0  0  0
 11 31  1  0  0  0  0
 12 32  1  0  0  0  0
 12 33  1  0  0  0  0
 12 34  1  0  0  0  0
 13 17  1  0  0  0  0
 14 35  1  0  0  0  0
 15 36  1  0  0  0  0
 15 18  1  0  0  0  0
 16 37  1  0  0  0  0
 16 19  2  0  0  0  0
 17 38  1  0  0  0  0
 18 20  2  0  0  0  0
 18 21  1  0  0  0  0
 19 20  1  0  0  0  0
 19 39  1  0  0  0  0
 20 22  1  0  0  0  0
 21 40  1  0  0  0  0
 22 41  1  0  0  0  0
M  END
