decoy-684
 OpenBabel06062114513D

 44 47  0  0  0  0  0  0  0  0999 V2000
    0.1400    1.5780   -1.1070 C   0  0  0  0  0  0  0  0  0  0  0  0
    0.2270    0.1880   -1.4140 C   0  0  0  0  0  0  0  0  0  0  0  0
   -0.7490    2.0500   -0.1100 C   0  0  0  0  0  0  0  0  0  0  0  0
    0.9380    2.5270   -1.7900 C   0  0  0  0  0  0  0  0  0  0  0  0
    1.4860   -0.4490   -1.5540 C   0  0  0  0  0  0  0  0  0  0  0  0
   -0.9410   -0.5950   -1.5880 C   0  0  0  0  0  0  0  0  0  0  0  0
   -0.8360    3.4200    0.1940 C   0  0  0  0  0  0  0  0  0  0  0  0
    0.8520    3.8990   -1.4890 C   0  0  0  0  0  0  0  0  0  0  0  0
    1.5730   -1.8210   -1.8570 C   0  0  0  0  0  0  0  0  0  0  0  0
   -0.8550   -1.9660   -1.8920 C   0  0  0  0  0  0  0  0  0  0  0  0
   -0.0380    4.3630   -0.4940 C   0  0  0  0  0  0  0  0  0  0  0  0
    0.4020   -2.5800   -2.0260 C   0  0  0  0  0  0  0  0  0  0  0  0
   -0.1240    5.7170   -0.2010 C   0  0  0  0  0  0  0  0  0  0  0  0
   -1.3240    6.4120   -0.2310 C   0  0  0  0  0  0  0  0  0  0  0  0
    0.8990    6.3210    0.0950 O   0  0  0  0  0  0  0  0  0  0  0  0
   -1.7560    7.1470    0.8970 C   0  0  0  0  0  0  0  0  0  0  0  0
   -2.1400    6.4010   -1.3850 C   0  0  0  0  0  0  0  0  0  0  0  0
   -2.9740    7.8500    0.8710 C   0  0  0  0  0  0  0  0  0  0  0  0
   -3.3590    7.1040   -1.4070 C   0  0  0  0  0  0  0  0  0  0  0  0
   -3.7980    7.8410   -0.2810 C   0  0  0  0  0  0  0  0  0  0  0  0
   -5.0340    8.5530   -0.3060 C   0  0  0  0  0  0  0  0  0  0  0  0
   -6.2120    7.9490   -0.8110 C   0  0  0  0  0  0  0  0  0  0  0  0
   -5.1170    9.8840    0.1740 C   0  0  0  0  0  0  0  0  0  0  0  0
   -7.4320    8.6510   -0.8340 C   0  0  0  0  0  0  0  0  0  0  0  0
   -6.3360   10.5870    0.1490 C   0  0  0  0  0  0  0  0  0  0  0  0
   -7.4940    9.9710   -0.3550 C   0  0  0  0  0  0  0  0  0  0  0  0
   -1.3300    1.3940    0.4180 H   0  0  0  0  0  0  0  0  0  0  0  0
    1.5810    2.2290   -2.5280 H   0  0  0  0  0  0  0  0  0  0  0  0
    2.3530    0.0770   -1.4210 H   0  0  0  0  0  0  0  0  0  0  0  0
   -1.8690   -0.1690   -1.5110 H   0  0  0  0  0  0  0  0  0  0  0  0
   -1.4840    3.7240    0.9260 H   0  0  0  0  0  0  0  0  0  0  0  0
    1.4380    4.5570   -2.0090 H   0  0  0  0  0  0  0  0  0  0  0  0
    2.4880   -2.2670   -1.9500 H   0  0  0  0  0  0  0  0  0  0  0  0
   -1.7080   -2.5170   -2.0180 H   0  0  0  0  0  0  0  0  0  0  0  0
    0.4650   -3.5760   -2.2460 H   0  0  0  0  0  0  0  0  0  0  0  0
   -1.1910    7.1680    1.7500 H   0  0  0  0  0  0  0  0  0  0  0  0
   -1.8510    5.8860   -2.2210 H   0  0  0  0  0  0  0  0  0  0  0  0
   -3.2640    8.3560    1.7110 H   0  0  0  0  0  0  0  0  0  0  0  0
   -3.9160    7.0860   -2.2650 H   0  0  0  0  0  0  0  0  0  0  0  0
   -6.1980    6.9850   -1.1510 H   0  0  0  0  0  0  0  0  0  0  0  0
   -4.2850   10.3610    0.5320 H   0  0  0  0  0  0  0  0  0  0  0  0
   -8.2750    8.2000   -1.1980 H   0  0  0  0  0  0  0  0  0  0  0  0
   -6.3790   11.5490    0.4950 H   0  0  0  0  0  0  0  0  0  0  0  0
   -8.3800   10.4810   -0.3720 H   0  0  0  0  0  0  0  0  0  0  0  0
  1  3  2  0  0  0  0
  1  2  1  0  0  0  0
  1  4  1  0  0  0  0
  2  5  2  0  0  0  0
  2  6  1  0  0  0  0
  3  7  1  0  0  0  0
  3 27  1  0  0  0  0
  4  8  2  0  0  0  0
  4 28  1  0  0  0  0
  5 29  1  0  0  0  0
  5  9  1  0  0  0  0
  6 30  1  0  0  0  0
  6 10  2  0  0  0  0
  7 31  1  0  0  0  0
  7 11  2  0  0  0  0
  8 11  1  0  0  0  0
  8 32  1  0  0  0  0
  9 12  2  0  0  0  0
  9 33  1  0  0  0  0
 10 12  1  0  0  0  0
 10 34  1  0  0  0  0
 11 13  1  0  0  0  0
 12 35  1  0  0  0  0
 13 15  2  0  0  0  0
 13 14  1  0  0  0  0
 14 16  2  0  0  0  0
 14 17  1  0  0  0  0
 16 36  1  0  0  0  0
 16 18  1  0  0  0  0
 17 19  2  0  0  0  0
 17 37  1  0  0  0  0
 18 38  1  0  0  0  0
 18 20  2  0  0  0  0
 19 20  1  0  0  0  0
 19 39  1  0  0  0  0
 20 21  1  0  0  0  0
 21 23  2  0  0  0  0
 21 22  1  0  0  0  0
 22 24  2  0  0  0  0
 22 40  1  0  0  0  0
 23 41  1  0  0  0  0
 23 25  1  0  0  0  0
 24 26  1  0  0  0  0
 24 42  1  0  0  0  0
 25 43  1  0  0  0  0
 25 26  2  0  0  0  0
 26 44  1  0  0  0  0
M  END
