
  ACD/Labs06062115103D

 45 47  0  0  0  0  0  0  0  0  2 V2000
   19.0157   -7.2980   -2.0161 C   0  0  0  0  0  0  0  0  0  0  0  0
   19.8476   -8.2859   -1.6103 N   0  3  0  0  0  0  0  0  0  0  0  0
   17.6912   -7.6760   -1.9789 C   0  0  0  0  0  0  0  0  0  0  0  0
   19.3702   -6.0270   -2.4340 C   0  0  0  0  0  0  0  0  0  0  0  0
   19.1831   -9.4093   -1.2577 C   0  0  0  0  0  0  0  0  0  0  0  0
   21.3120   -8.1538   -1.5423 C   0  0  0  0  0  0  0  0  0  0  0  0
   17.6070   -9.1822   -1.4529 S   0  0  0  0  0  0  0  0  0  0  0  0
   16.6687   -6.8264   -2.3494 C   0  0  0  0  0  0  0  0  0  0  0  0
   18.3549   -5.1533   -2.8106 C   0  0  0  0  0  0  0  0  0  0  0  0
   19.8234  -10.6833   -0.7449 C   0  0  0  0  0  0  0  0  0  0  0  0
   21.6990   -7.5514   -0.1885 C   0  0  0  0  0  0  0  0  0  0  0  0
   17.0192   -5.5485   -2.7688 C   0  0  0  0  0  0  0  0  0  0  0  0
   19.3757  -11.9105   -1.5457 C   0  0  0  0  0  0  0  0  0  0  0  0
   19.9490  -13.1637   -0.9136 C   0  0  0  0  0  0  0  0  0  0  0  0
   19.1197  -14.2329   -0.6108 C   0  0  0  0  0  0  0  0  0  0  0  0
   21.3042  -13.2457   -0.6339 C   0  0  0  0  0  0  0  0  0  0  0  0
   19.6441  -15.3792   -0.0304 C   0  0  0  0  0  0  0  0  0  0  0  0
   21.8273  -14.3896   -0.0535 C   0  0  0  0  0  0  0  0  0  0  0  0
   21.0012  -15.4603    0.2514 C   0  0  0  0  0  0  0  0  0  0  0  0
   21.5501  -16.6204    0.8494 N   0  0  0  0  0  0  0  0  0  0  0  0
   20.7723  -17.8083    1.2343 C   0  0  0  0  0  0  0  0  0  0  0  0
   22.9711  -16.7669    1.2031 C   0  0  0  0  0  0  0  0  0  0  0  0
   20.4367   -5.7176   -2.4661 H   0  0  0  0  0  0  0  0  0  0  0  0
   21.7673   -9.1602   -1.6615 H   0  0  0  0  0  0  0  0  0  0  0  0
   21.6498   -7.4935   -2.3695 H   0  0  0  0  0  0  0  0  0  0  0  0
   15.6087   -7.1571   -2.3116 H   0  0  0  0  0  0  0  0  0  0  0  0
   18.6141   -4.1273   -3.1490 H   0  0  0  0  0  0  0  0  0  0  0  0
   20.9270  -10.5816   -0.8225 H   0  0  0  0  0  0  0  0  0  0  0  0
   19.5376  -10.8201    0.3200 H   0  0  0  0  0  0  0  0  0  0  0  0
   20.8583   -7.6780    0.5267 H   0  0  0  0  0  0  0  0  0  0  0  0
   22.5999   -8.0705    0.2034 H   0  0  0  0  0  0  0  0  0  0  0  0
   21.9184   -6.4694   -0.3142 H   0  0  0  0  0  0  0  0  0  0  0  0
   16.2235   -4.8356   -3.0738 H   0  0  0  0  0  0  0  0  0  0  0  0
   18.2665  -11.9740   -1.5438 H   0  0  0  0  0  0  0  0  0  0  0  0
   19.7407  -11.8281   -2.5917 H   0  0  0  0  0  0  0  0  0  0  0  0
   18.0331  -14.1709   -0.8335 H   0  0  0  0  0  0  0  0  0  0  0  0
   21.9731  -12.3922   -0.8756 H   0  0  0  0  0  0  0  0  0  0  0  0
   18.9758  -16.2338    0.2091 H   0  0  0  0  0  0  0  0  0  0  0  0
   22.9143  -14.4485    0.1684 H   0  0  0  0  0  0  0  0  0  0  0  0
   20.4637  -17.7197    2.2979 H   0  0  0  0  0  0  0  0  0  0  0  0
   19.8690  -17.8832    0.5916 H   0  0  0  0  0  0  0  0  0  0  0  0
   21.3974  -18.7177    1.1047 H   0  0  0  0  0  0  0  0  0  0  0  0
   23.1048  -16.5671    2.2879 H   0  0  0  0  0  0  0  0  0  0  0  0
   23.3048  -17.8015    0.9733 H   0  0  0  0  0  0  0  0  0  0  0  0
   23.5751  -16.0423    0.6159 H   0  0  0  0  0  0  0  0  0  0  0  0
  1  2  1  0  0  0  0
  1  4  2  0  0  0  0
  1  3  1  0  0  0  0
  2  6  1  0  0  0  0
  2  5  2  0  0  0  0
  3  7  1  0  0  0  0
  3  8  2  0  0  0  0
  4  9  1  0  0  0  0
  5 10  1  0  0  0  0
  5  7  1  0  0  0  0
  6 11  1  0  0  0  0
  8 12  1  0  0  0  0
  9 12  2  0  0  0  0
 10 13  1  0  0  0  0
 13 14  1  0  0  0  0
 14 15  2  0  0  0  0
 14 16  1  0  0  0  0
 15 17  1  0  0  0  0
 16 18  2  0  0  0  0
 17 19  2  0  0  0  0
 18 19  1  0  0  0  0
 19 20  1  0  0  0  0
 20 21  1  0  0  0  0
 20 22  1  0  0  0  0
 23  4  1  0  0  0  0
 24  6  1  0  0  0  0
 25  6  1  0  0  0  0
 26  8  1  0  0  0  0
 27  9  1  0  0  0  0
 28 10  1  0  0  0  0
 29 10  1  0  0  0  0
 30 11  1  0  0  0  0
 31 11  1  0  0  0  0
 32 11  1  0  0  0  0
 33 12  1  0  0  0  0
 34 13  1  0  0  0  0
 35 13  1  0  0  0  0
 36 15  1  0  0  0  0
 37 16  1  0  0  0  0
 38 17  1  0  0  0  0
 39 18  1  0  0  0  0
 40 21  1  0  0  0  0
 41 21  1  0  0  0  0
 42 21  1  0  0  0  0
 43 22  1  0  0  0  0
 44 22  1  0  0  0  0
 45 22  1  0  0  0  0
M  CHG  1   2   1
M  END
