decoy-139
 OpenBabel06062114503D

 37 38  0  0  0  0  0  0  0  0999 V2000
   -2.7060    3.0540   -0.0260 C   0  0  0  0  0  0  0  0  0  0  0  0
   -2.4180    1.6710   -0.0760 C   0  0  0  0  0  0  0  0  0  0  0  0
   -1.8410    3.9040    0.7030 C   0  0  0  0  0  0  0  0  0  0  0  0
   -3.9080    3.6190   -0.6840 C   0  0  0  0  0  0  0  0  0  0  0  0
   -1.2920    1.1500    0.5890 C   0  0  0  0  0  0  0  0  0  0  0  0
   -0.7170    3.3830    1.3700 C   0  0  0  0  0  0  0  0  0  0  0  0
   -4.7320    4.1860    0.3330 O   0  0  0  0  0  0  0  0  0  0  0  0
   -0.4300    2.0050    1.3050 C   0  0  0  0  0  0  0  0  0  0  0  0
   -5.9010    4.8640    0.2020 C   0  0  0  0  0  0  0  0  0  0  0  0
    0.6420    1.4920    1.9820 O   0  0  0  0  0  0  0  0  0  0  0  0
   -6.7170    5.4870    1.6070 S   0  0  0  0  0  0  0  0  0  0  0  0
   -6.4650    5.0560   -1.0110 O   0  0  0  0  0  0  0  0  0  0  0  0
    1.8480    1.4690    1.1980 C   0  0  0  0  0  0  0  0  0  0  0  0
   -5.3070    5.7130    2.5950 C   0  0  0  0  0  0  0  0  0  0  0  0
   -4.7620    4.6620    3.2570 N   0  0  0  0  0  0  0  0  0  0  0  0
   -4.6970    6.9220    2.6460 N   0  0  0  0  0  0  0  0  0  0  0  0
   -3.6170    4.7790    3.9800 C   0  0  0  0  0  0  0  0  0  0  0  0
   -3.5520    7.1230    3.3530 C   0  0  0  0  0  0  0  0  0  0  0  0
   -2.9750    6.0360    4.0440 C   0  0  0  0  0  0  0  0  0  0  0  0
   -3.0830    3.5770    4.6460 C   0  0  0  0  0  0  0  0  0  0  0  0
   -2.9550    8.4720    3.3510 C   0  0  0  0  0  0  0  0  0  0  0  0
   -3.0300    1.0310   -0.5870 H   0  0  0  0  0  0  0  0  0  0  0  0
   -2.0320    4.9070    0.7650 H   0  0  0  0  0  0  0  0  0  0  0  0
   -3.6050    4.3920   -1.3940 H   0  0  0  0  0  0  0  0  0  0  0  0
   -4.4760    2.8570   -1.2230 H   0  0  0  0  0  0  0  0  0  0  0  0
   -1.1010    0.1470    0.5530 H   0  0  0  0  0  0  0  0  0  0  0  0
   -0.1100    4.0080    1.9050 H   0  0  0  0  0  0  0  0  0  0  0  0
    2.6440    1.0470    1.8120 H   0  0  0  0  0  0  0  0  0  0  0  0
    1.7330    0.8410    0.3100 H   0  0  0  0  0  0  0  0  0  0  0  0
    2.1470    2.4760    0.8970 H   0  0  0  0  0  0  0  0  0  0  0  0
   -2.1090    6.1540    4.5750 H   0  0  0  0  0  0  0  0  0  0  0  0
   -2.1580    3.7870    5.1870 H   0  0  0  0  0  0  0  0  0  0  0  0
   -3.8190    3.1950    5.3540 H   0  0  0  0  0  0  0  0  0  0  0  0
   -2.8780    2.8080    3.8990 H   0  0  0  0  0  0  0  0  0  0  0  0
   -2.0400    8.5140    3.9450 H   0  0  0  0  0  0  0  0  0  0  0  0
   -2.7170    8.7640    2.3280 H   0  0  0  0  0  0  0  0  0  0  0  0
   -3.6680    9.1860    3.7660 H   0  0  0  0  0  0  0  0  0  0  0  0
  1  3  2  0  0  0  0
  1  2  1  0  0  0  0
  1  4  1  0  0  0  0
  2  5  2  0  0  0  0
  2 22  1  0  0  0  0
  3 23  1  0  0  0  0
  3  6  1  0  0  0  0
  4  7  1  0  0  0  0
  4 24  1  0  0  0  0
  4 25  1  0  0  0  0
  5  8  1  0  0  0  0
  5 26  1  0  0  0  0
  6 27  1  0  0  0  0
  6  8  2  0  0  0  0
  7  9  1  0  0  0  0
  8 10  1  0  0  0  0
  9 11  1  0  0  0  0
  9 12  2  0  0  0  0
 10 13  1  0  0  0  0
 11 14  1  0  0  0  0
 13 28  1  0  0  0  0
 13 29  1  0  0  0  0
 13 30  1  0  0  0  0
 14 16  2  0  0  0  0
 14 15  1  0  0  0  0
 15 17  2  0  0  0  0
 16 18  1  0  0  0  0
 17 19  1  0  0  0  0
 17 20  1  0  0  0  0
 18 19  2  0  0  0  0
 18 21  1  0  0  0  0
 19 31  1  0  0  0  0
 20 32  1  0  0  0  0
 20 33  1  0  0  0  0
 20 34  1  0  0  0  0
 21 37  1  0  0  0  0
 21 35  1  0  0  0  0
 21 36  1  0  0  0  0
M  END
