decoy-839
 OpenBabel06062114513D

 39 41  0  0  0  0  0  0  0  0999 V2000
   -0.0010    1.5750   -0.1530 N   0  0  0  0  0  0  0  0  0  0  0  0
    0.1170    0.5930   -1.0840 C   0  0  0  0  0  0  0  0  0  0  0  0
    1.0300    2.0520    0.5940 C   0  0  0  0  0  0  0  0  0  0  0  0
   -1.3270    2.1710    0.0770 C   0  0  0  0  0  0  0  0  0  0  0  0
    1.2950    0.1230   -1.6430 C   0  0  0  0  0  0  0  0  0  0  0  0
   -0.8670    0.0800   -1.6080 O   0  0  0  0  0  0  0  0  0  0  0  0
    2.2570    1.4390    0.7920 C   0  0  0  0  0  0  0  0  0  0  0  0
    0.8980    3.0460    1.3010 O   0  0  0  0  0  0  0  0  0  0  0  0
   -1.8870    1.8080    1.4100 C   0  0  0  0  0  0  0  0  0  0  0  0
    1.7810   -1.1720   -1.3520 C   0  0  0  0  0  0  0  0  0  0  0  0
    2.0320    0.9240   -2.5450 C   0  0  0  0  0  0  0  0  0  0  0  0
    3.4450    1.9830    0.2540 C   0  0  0  0  0  0  0  0  0  0  0  0
    2.3530    0.2630    1.5700 C   0  0  0  0  0  0  0  0  0  0  0  0
   -2.1640    2.7950    2.3850 C   0  0  0  0  0  0  0  0  0  0  0  0
   -2.1530    0.4530    1.7220 C   0  0  0  0  0  0  0  0  0  0  0  0
    2.9850   -1.6230   -1.9220 C   0  0  0  0  0  0  0  0  0  0  0  0
    3.1900    0.4580   -3.0810 N   0  0  0  0  0  0  0  0  0  0  0  0
    4.6780    1.3370    0.4620 C   0  0  0  0  0  0  0  0  0  0  0  0
    3.5590   -0.3340    1.7540 N   0  0  0  0  0  0  0  0  0  0  0  0
   -2.6850    2.4360    3.6420 C   0  0  0  0  0  0  0  0  0  0  0  0
   -2.6740    0.0940    2.9790 C   0  0  0  0  0  0  0  0  0  0  0  0
    3.6850   -0.7730   -2.7970 C   0  0  0  0  0  0  0  0  0  0  0  0
    4.7080    0.1580    1.2270 C   0  0  0  0  0  0  0  0  0  0  0  0
   -2.9400    1.0850    3.9400 C   0  0  0  0  0  0  0  0  0  0  0  0
   -1.2480    3.2580   -0.0340 H   0  0  0  0  0  0  0  0  0  0  0  0
   -2.0770    1.8820   -0.6630 H   0  0  0  0  0  0  0  0  0  0  0  0
    1.2710   -1.7870   -0.7120 H   0  0  0  0  0  0  0  0  0  0  0  0
    1.7150    1.8630   -2.7970 H   0  0  0  0  0  0  0  0  0  0  0  0
    3.4190    2.8410   -0.3050 H   0  0  0  0  0  0  0  0  0  0  0  0
    1.5230   -0.1590    1.9920 H   0  0  0  0  0  0  0  0  0  0  0  0
   -1.9840    3.7830    2.1900 H   0  0  0  0  0  0  0  0  0  0  0  0
   -1.9670   -0.2820    1.0360 H   0  0  0  0  0  0  0  0  0  0  0  0
    3.3470   -2.5540   -1.7050 H   0  0  0  0  0  0  0  0  0  0  0  0
    5.5380    1.7190    0.0640 H   0  0  0  0  0  0  0  0  0  0  0  0
   -2.8790    3.1570    4.3410 H   0  0  0  0  0  0  0  0  0  0  0  0
   -2.8600   -0.8880    3.1940 H   0  0  0  0  0  0  0  0  0  0  0  0
    4.5610   -1.0770   -3.2240 H   0  0  0  0  0  0  0  0  0  0  0  0
    5.5900   -0.3290    1.3930 H   0  0  0  0  0  0  0  0  0  0  0  0
   -3.3180    0.8250    4.8530 H   0  0  0  0  0  0  0  0  0  0  0  0
  1  4  1  0  0  0  0
  1  3  1  0  0  0  0
  1  2  1  0  0  0  0
  2  5  1  0  0  0  0
  2  6  2  0  0  0  0
  3  7  1  0  0  0  0
  3  8  2  0  0  0  0
  4  9  1  0  0  0  0
  4 25  1  0  0  0  0
  4 26  1  0  0  0  0
  5 10  2  0  0  0  0
  5 11  1  0  0  0  0
  7 13  2  0  0  0  0
  7 12  1  0  0  0  0
  9 15  2  0  0  0  0
  9 14  1  0  0  0  0
 10 27  1  0  0  0  0
 10 16  1  0  0  0  0
 11 17  2  0  0  0  0
 11 28  1  0  0  0  0
 12 18  2  0  0  0  0
 12 29  1  0  0  0  0
 13 19  1  0  0  0  0
 13 30  1  0  0  0  0
 14 20  2  0  0  0  0
 14 31  1  0  0  0  0
 15 21  1  0  0  0  0
 15 32  1  0  0  0  0
 16 33  1  0  0  0  0
 16 22  2  0  0  0  0
 17 22  1  0  0  0  0
 18 23  1  0  0  0  0
 18 34  1  0  0  0  0
 19 23  2  0  0  0  0
 20 24  1  0  0  0  0
 20 35  1  0  0  0  0
 21 36  1  0  0  0  0
 21 24  2  0  0  0  0
 22 37  1  0  0  0  0
 23 38  1  0  0  0  0
 24 39  1  0  0  0  0
M  END
