decoy-744
 OpenBabel06062114513D

 64 67  0  0  0  0  0  0  0  0999 V2000
    0.0750    1.1990   -2.4160 C   0  0  0  0  0  0  0  0  0  0  0  0
    0.5410   -0.2050   -2.1510 C   0  0  0  0  0  0  0  0  0  0  0  0
    0.9750    2.2840   -2.2750 C   0  0  0  0  0  0  0  0  0  0  0  0
   -1.2570    1.5000   -2.7920 C   0  0  0  0  0  0  0  0  0  0  0  0
    0.8450   -0.4010   -0.6250 C   0  0  0  0  0  0  0  0  0  0  0  0
   -0.4520   -1.1720   -2.5690 O   0  0  0  0  0  0  0  0  0  0  0  0
    1.7100   -0.4090   -2.9490 O   0  0  0  0  0  0  0  0  0  0  0  0
    0.5670    3.6090   -2.5090 C   0  0  0  0  0  0  0  0  0  0  0  0
   -1.6680    2.8260   -3.0230 C   0  0  0  0  0  0  0  0  0  0  0  0
    1.1170   -1.8280   -0.1790 *   0  0  0  0  0  0  0  0  0  0  0  0
   -0.1710   -2.5520   -2.2750 C   0  0  0  0  0  0  0  0  0  0  0  0
   -0.7630    3.9040   -2.8870 C   0  0  0  0  0  0  0  0  0  0  0  0
    0.0570   -2.7430   -0.7540 C   0  0  0  0  0  0  0  0  0  0  0  0
    2.5030   -2.2840   -0.5800 C   0  0  0  0  0  0  0  0  0  0  0  0
    1.0510   -1.8920    1.3320 C   0  0  0  0  0  0  0  0  0  0  0  0
   -1.1770    5.2490   -3.1220 C   0  0  0  0  0  0  0  0  0  0  0  0
   -2.3910    5.7430   -2.5900 C   0  0  0  0  0  0  0  0  0  0  0  0
   -0.3960    6.1250   -3.9090 C   0  0  0  0  0  0  0  0  0  0  0  0
   -2.7940    7.0700   -2.8200 C   0  0  0  0  0  0  0  0  0  0  0  0
   -0.8040    7.4520   -4.1390 C   0  0  0  0  0  0  0  0  0  0  0  0
   -1.9930    7.9680   -3.5690 C   0  0  0  0  0  0  0  0  0  0  0  0
   -2.4510    9.3800   -3.8170 C   0  0  0  0  0  0  0  0  0  0  0  0
   -2.9150   10.2020   -2.5600 C   0  0  0  0  0  0  0  0  0  0  0  0
   -1.5310   10.1970   -4.5830 O   0  0  0  0  0  0  0  0  0  0  0  0
   -3.5890    9.2450   -4.6710 O   0  0  0  0  0  0  0  0  0  0  0  0
   -1.8100   10.8250   -1.7310 *   0  0  0  0  0  0  0  0  0  0  0  0
   -0.4170   10.7870   -3.8790 C   0  0  0  0  0  0  0  0  0  0  0  0
   -0.8930   11.6020   -2.6500 C   0  0  0  0  0  0  0  0  0  0  0  0
   -2.4200   11.7790   -0.7270 C   0  0  0  0  0  0  0  0  0  0  0  0
   -1.0470    9.7820   -0.9460 C   0  0  0  0  0  0  0  0  0  0  0  0
    1.9460    2.1150   -2.0010 H   0  0  0  0  0  0  0  0  0  0  0  0
   -1.9510    0.7580   -2.8990 H   0  0  0  0  0  0  0  0  0  0  0  0
    1.6820    0.2440   -0.3400 H   0  0  0  0  0  0  0  0  0  0  0  0
   -0.0340   -0.0240   -0.0890 H   0  0  0  0  0  0  0  0  0  0  0  0
    1.4120   -0.2910   -3.8760 H   0  0  0  0  0  0  0  0  0  0  0  0
    1.2500    4.3610   -2.3830 H   0  0  0  0  0  0  0  0  0  0  0  0
   -2.6370    2.9950   -3.3070 H   0  0  0  0  0  0  0  0  0  0  0  0
   -1.0340   -3.1440   -2.5870 H   0  0  0  0  0  0  0  0  0  0  0  0
    0.6890   -2.8980   -2.8500 H   0  0  0  0  0  0  0  0  0  0  0  0
    0.3010   -3.7940   -0.5670 H   0  0  0  0  0  0  0  0  0  0  0  0
   -0.9080   -2.5520   -0.2700 H   0  0  0  0  0  0  0  0  0  0  0  0
    3.2720   -1.6170   -0.1800 H   0  0  0  0  0  0  0  0  0  0  0  0
    2.7140   -3.2900   -0.2050 H   0  0  0  0  0  0  0  0  0  0  0  0
    2.6380   -2.3210   -1.6590 H   0  0  0  0  0  0  0  0  0  0  0  0
    0.0730   -1.5810    1.7100 H   0  0  0  0  0  0  0  0  0  0  0  0
    1.2290   -2.9070    1.6990 H   0  0  0  0  0  0  0  0  0  0  0  0
    1.7980   -1.2380    1.7920 H   0  0  0  0  0  0  0  0  0  0  0  0
   -2.9900    5.1420   -2.0190 H   0  0  0  0  0  0  0  0  0  0  0  0
    0.4700    5.7970   -4.3450 H   0  0  0  0  0  0  0  0  0  0  0  0
   -3.6920    7.3710   -2.4370 H   0  0  0  0  0  0  0  0  0  0  0  0
   -0.2230    8.0280   -4.7490 H   0  0  0  0  0  0  0  0  0  0  0  0
   -3.5500   11.0090   -2.9460 H   0  0  0  0  0  0  0  0  0  0  0  0
   -3.5680    9.5980   -1.9260 H   0  0  0  0  0  0  0  0  0  0  0  0
   -3.2550    8.8020   -5.4800 H   0  0  0  0  0  0  0  0  0  0  0  0
    0.2990   10.0260   -3.5700 H   0  0  0  0  0  0  0  0  0  0  0  0
    0.1000   11.4540   -4.5720 H   0  0  0  0  0  0  0  0  0  0  0  0
   -1.4120   12.4840   -3.0430 H   0  0  0  0  0  0  0  0  0  0  0  0
   -0.0130   11.9670   -2.1100 H   0  0  0  0  0  0  0  0  0  0  0  0
   -3.0990   11.2600   -0.0440 H   0  0  0  0  0  0  0  0  0  0  0  0
   -1.6520   12.2700   -0.1220 H   0  0  0  0  0  0  0  0  0  0  0  0
   -2.9970   12.5690   -1.2170 H   0  0  0  0  0  0  0  0  0  0  0  0
   -0.5290    9.0710   -1.5870 H   0  0  0  0  0  0  0  0  0  0  0  0
   -0.2860   10.2410   -0.3090 H   0  0  0  0  0  0  0  0  0  0  0  0
   -1.7150    9.2060   -0.3000 H   0  0  0  0  0  0  0  0  0  0  0  0
  1  3  2  0  0  0  0
  1  2  1  0  0  0  0
  1  4  1  0  0  0  0
  2  7  1  0  0  0  0
  2  5  1  0  0  0  0
  2  6  1  0  0  0  0
  3 31  1  0  0  0  0
  3  8  1  0  0  0  0
  4  9  2  0  0  0  0
  4 32  1  0  0  0  0
  5 33  1  0  0  0  0
  5 10  1  0  0  0  0
  5 34  1  0  0  0  0
  6 11  1  0  0  0  0
  7 35  1  0  0  0  0
  8 36  1  0  0  0  0
  8 12  2  0  0  0  0
  9 12  1  0  0  0  0
  9 37  1  0  0  0  0
 10 15  1  0  0  0  0
 10 13  1  0  0  0  0
 10 14  1  0  0  0  0
 11 13  1  0  0  0  0
 11 38  1  0  0  0  0
 11 39  1  0  0  0  0
 12 16  1  0  0  0  0
 13 40  1  0  0  0  0
 13 41  1  0  0  0  0
 14 43  1  0  0  0  0
 14 42  1  0  0  0  0
 14 44  1  0  0  0  0
 15 46  1  0  0  0  0
 15 45  1  0  0  0  0
 15 47  1  0  0  0  0
 16 17  2  0  0  0  0
 16 18  1  0  0  0  0
 17 48  1  0  0  0  0
 17 19  1  0  0  0  0
 18 20  2  0  0  0  0
 18 49  1  0  0  0  0
 19 50  1  0  0  0  0
 19 21  2  0  0  0  0
 20 21  1  0  0  0  0
 20 51  1  0  0  0  0
 21 22  1  0  0  0  0
 22 25  1  0  0  0  0
 22 23  1  0  0  0  0
 22 24  1  0  0  0  0
 23 53  1  0  0  0  0
 23 26  1  0  0  0  0
 23 52  1  0  0  0  0
 24 27  1  0  0  0  0
 25 54  1  0  0  0  0
 26 30  1  0  0  0  0
 26 29  1  0  0  0  0
 26 28  1  0  0  0  0
 27 55  1  0  0  0  0
 27 28  1  0  0  0  0
 27 56  1  0  0  0  0
 28 58  1  0  0  0  0
 28 57  1  0  0  0  0
 29 60  1  0  0  0  0
 29 59  1  0  0  0  0
 29 61  1  0  0  0  0
 30 63  1  0  0  0  0
 30 64  1  0  0  0  0
 30 62  1  0  0  0  0
M  END
