
  ACD/Labs06062116173D

 69 71  0  0  0  0  0  0  0  0  2 V2000
   16.3732  -11.2833    1.4130 N   0  0  0  0  0  0  0  0  0  0  0  0
   15.3125  -10.6299    0.9123 C   0  0  0  0  0  0  0  0  0  0  0  0
   17.4637  -10.5667    1.0668 C   0  0  0  0  0  0  0  0  0  0  0  0
   16.3098  -12.5236    2.1505 C   0  0  0  0  0  0  0  0  0  0  0  0
   15.8206   -9.5025    0.2806 C   0  0  0  0  0  0  0  0  0  0  0  0
   13.9236  -10.8830    0.9101 C   0  0  0  0  0  0  0  0  0  0  0  0
   17.1686   -9.4445    0.3756 O   0  0  0  0  0  0  0  0  0  0  0  0
   18.7460  -10.8838    1.3391 C   0  0  0  0  0  0  0  0  0  0  0  0
   16.6047  -13.7449    1.2406 C   0  0  0  0  0  0  0  0  0  0  0  0
   14.9748   -8.5840   -0.3652 C   0  0  0  0  0  0  0  0  0  0  0  0
   13.0613   -9.9693    0.2676 C   0  0  0  0  0  0  0  0  0  0  0  0
   19.8253  -10.1361    0.9721 C   0  0  0  0  0  0  0  0  0  0  0  0
   16.5558  -15.0850    2.0120 C   0  0  0  0  0  0  0  0  0  0  0  0
   13.5849   -8.8230   -0.3675 C   0  0  0  0  0  0  0  0  0  0  0  0
   21.0980  -10.5279    1.1704 C   0  0  0  0  0  0  0  0  0  0  0  0
   16.9027  -16.4914    0.9333 S   0  0  0  0  0  0  0  0  0  0  0  0
   22.1733   -9.7824    0.7928 C   0  0  0  0  0  0  0  0  0  0  0  0
   16.8325  -17.9180    1.8380 O   0  0  0  0  0  0  0  0  0  0  0  0
   15.7555  -16.5752   -0.3054 O   0  5  0  0  0  0  0  0  0  0  0  0
   18.4474  -16.3482    0.2624 O   0  0  0  0  0  0  0  0  0  0  0  0
   23.3800   -9.7398    1.4100 C   0  0  0  0  0  0  0  0  0  0  0  0
   23.6948  -10.4231    2.5724 C   0  0  0  0  0  0  0  0  0  0  0  0
   24.4593   -9.0911    0.8333 C   0  0  0  0  0  0  0  0  0  0  0  0
   24.9465  -10.8863    2.7781 N   0  0  0  0  0  0  0  0  0  0  0  0
   22.8633  -10.4576    3.4732 O   0  0  0  0  0  0  0  0  0  0  0  0
   25.7191   -9.5400    1.0372 N   0  0  0  0  0  0  0  0  0  0  0  0
   24.2566   -8.0426    0.2294 O   0  0  0  0  0  0  0  0  0  0  0  0
   25.8748  -10.6514    1.8114 C   0  0  0  0  0  0  0  0  0  0  0  0
   25.3519  -11.5011    4.0322 C   0  0  0  0  0  0  0  0  0  0  0  0
   26.9019   -8.8313    0.5682 C   0  0  0  0  0  0  0  0  0  0  0  0
   26.7316  -11.9857    1.1785 S   0  0  0  0  0  0  0  0  0  0  0  0
   24.7724  -12.9321    4.2088 C   0  0  0  0  0  0  0  0  0  0  0  0
   27.6822   -8.1597    1.7315 C   0  0  0  0  0  0  0  0  0  0  0  0
   25.2253  -13.6014    5.5327 C   0  0  0  0  0  0  0  0  0  0  0  0
   28.9251   -7.3693    1.2453 C   0  0  0  0  0  0  0  0  0  0  0  0
   24.6480  -15.0231    5.7099 C   0  0  0  0  0  0  0  0  0  0  0  0
   29.7023   -6.7086    2.4054 C   0  0  0  0  0  0  0  0  0  0  0  0
   17.0177  -12.4956    2.9820 H   0  0  0  0  0  0  0  0  0  0  0  0
   15.3233  -12.6537    2.6004 H   0  0  0  0  0  0  0  0  0  0  0  0
   13.5390  -11.7139    1.3602 H   0  0  0  0  0  0  0  0  0  0  0  0
   18.9172  -11.7236    1.8408 H   0  0  0  0  0  0  0  0  0  0  0  0
   15.8658  -13.7677    0.4347 H   0  0  0  0  0  0  0  0  0  0  0  0
   17.5936  -13.6295    0.7900 H   0  0  0  0  0  0  0  0  0  0  0  0
   15.3628   -7.7583   -0.8257 H   0  0  0  0  0  0  0  0  0  0  0  0
   12.0539  -10.1405    0.2583 H   0  0  0  0  0  0  0  0  0  0  0  0
   19.6685   -9.2496    0.5445 H   0  0  0  0  0  0  0  0  0  0  0  0
   17.2969  -15.0798    2.8145 H   0  0  0  0  0  0  0  0  0  0  0  0
   15.5665  -15.2268    2.4510 H   0  0  0  0  0  0  0  0  0  0  0  0
   12.9562   -8.1659   -0.8328 H   0  0  0  0  0  0  0  0  0  0  0  0
   21.2699  -11.4132    1.5913 H   0  0  0  0  0  0  0  0  0  0  0  0
   22.0622   -9.2592   -0.0497 H   0  0  0  0  0  0  0  0  0  0  0  0
   26.4431  -11.5667    4.1043 H   0  0  0  0  0  0  0  0  0  0  0  0
   25.0311  -10.8715    4.8663 H   0  0  0  0  0  0  0  0  0  0  0  0
   27.5641   -9.5204    0.0387 H   0  0  0  0  0  0  0  0  0  0  0  0
   26.6471   -8.0526   -0.1562 H   0  0  0  0  0  0  0  0  0  0  0  0
   23.6808  -12.8865    4.1933 H   0  0  0  0  0  0  0  0  0  0  0  0
   25.0957  -13.5510    3.3679 H   0  0  0  0  0  0  0  0  0  0  0  0
   27.0084   -7.4797    2.2586 H   0  0  0  0  0  0  0  0  0  0  0  0
   28.0091   -8.9294    2.4361 H   0  0  0  0  0  0  0  0  0  0  0  0
   26.3168  -13.6641    5.5531 H   0  0  0  0  0  0  0  0  0  0  0  0
   24.9040  -12.9872    6.3786 H   0  0  0  0  0  0  0  0  0  0  0  0
   29.6005   -8.0458    0.7145 H   0  0  0  0  0  0  0  0  0  0  0  0
   28.6092   -6.5879    0.5488 H   0  0  0  0  0  0  0  0  0  0  0  0
   24.9966  -15.4486    6.6533 H   0  0  0  0  0  0  0  0  0  0  0  0
   23.5571  -14.9927    5.7244 H   0  0  0  0  0  0  0  0  0  0  0  0
   24.9747  -15.6714    4.8936 H   0  0  0  0  0  0  0  0  0  0  0  0
   30.5635   -6.1654    2.0103 H   0  0  0  0  0  0  0  0  0  0  0  0
   29.0621   -6.0040    2.9393 H   0  0  0  0  0  0  0  0  0  0  0  0
   30.0593   -7.4657    3.1046 H   0  0  0  0  0  0  0  0  0  0  0  0
  1  4  1  0  0  0  0
  1  2  1  0  0  0  0
  1  3  1  0  0  0  0
  2  6  2  0  0  0  0
  2  5  1  0  0  0  0
  3  8  2  0  0  0  0
  3  7  1  0  0  0  0
  4  9  1  0  0  0  0
  4 38  1  0  0  0  0
  4 39  1  0  0  0  0
  5  7  1  0  0  0  0
  5 10  2  0  0  0  0
  6 40  1  0  0  0  0
  6 11  1  0  0  0  0
  8 41  1  0  0  0  0
  8 12  1  0  0  0  0
  9 43  1  0  0  0  0
  9 13  1  0  0  0  0
  9 42  1  0  0  0  0
 10 14  1  0  0  0  0
 10 44  1  0  0  0  0
 11 45  1  0  0  0  0
 11 14  2  0  0  0  0
 12 15  2  0  0  0  0
 12 46  1  0  0  0  0
 13 16  1  0  0  0  0
 13 47  1  0  0  0  0
 13 48  1  0  0  0  0
 14 49  1  0  0  0  0
 15 50  1  0  0  0  0
 15 17  1  0  0  0  0
 16 20  2  0  0  0  0
 16 18  2  0  0  0  0
 16 19  1  0  0  0  0
 17 51  1  0  0  0  0
 17 21  2  0  0  0  0
 21 22  1  0  0  0  0
 21 23  1  0  0  0  0
 22 24  1  0  0  0  0
 22 25  2  0  0  0  0
 23 26  1  0  0  0  0
 23 27  2  0  0  0  0
 24 28  1  0  0  0  0
 24 29  1  0  0  0  0
 26 28  1  0  0  0  0
 26 30  1  0  0  0  0
 28 31  2  0  0  0  0
 29 52  1  0  0  0  0
 29 32  1  0  0  0  0
 29 53  1  0  0  0  0
 30 54  1  0  0  0  0
 30 33  1  0  0  0  0
 30 55  1  0  0  0  0
 32 57  1  0  0  0  0
 32 34  1  0  0  0  0
 32 56  1  0  0  0  0
 33 59  1  0  0  0  0
 33 35  1  0  0  0  0
 33 58  1  0  0  0  0
 34 60  1  0  0  0  0
 34 36  1  0  0  0  0
 34 61  1  0  0  0  0
 35 62  1  0  0  0  0
 35 37  1  0  0  0  0
 35 63  1  0  0  0  0
 36 66  1  0  0  0  0
 36 64  1  0  0  0  0
 36 65  1  0  0  0  0
 37 69  1  0  0  0  0
 37 67  1  0  0  0  0
 37 68  1  0  0  0  0
M  CHG  1  19  -1
M  END
