decoy-447
 OpenBabel06062114513D

 39 42  0  0  0  0  0  0  0  0999 V2000
    0.0740    1.6150    0.3560 C   0  0  0  0  0  0  0  0  0  0  0  0
    0.0770    0.0790    0.1810 C   0  0  0  0  0  0  0  0  0  0  0  0
    1.3760    2.1980    0.1940 N   0  0  0  0  0  0  0  0  0  0  0  0
   -0.4860    1.8260    1.6620 O   0  0  0  0  0  0  0  0  0  0  0  0
   -0.9950   -0.4230    1.1430 C   0  0  0  0  0  0  0  0  0  0  0  0
   -0.3310   -0.3310   -1.1230 O   0  0  0  0  0  0  0  0  0  0  0  0
    2.0860    2.2350   -0.9480 C   0  0  0  0  0  0  0  0  0  0  0  0
    2.1280    2.8180    1.1320 C   0  0  0  0  0  0  0  0  0  0  0  0
   -1.5320    0.8580    1.8190 C   0  0  0  0  0  0  0  0  0  0  0  0
   -1.9740   -1.0800    0.3400 O   0  0  0  0  0  0  0  0  0  0  0  0
   -1.3440   -1.3270   -0.9260 C   0  0  0  0  0  0  0  0  0  0  0  0
    3.2860    2.8880   -0.6770 C   0  0  0  0  0  0  0  0  0  0  0  0
    1.8120    1.7700   -2.1940 N   0  0  0  0  0  0  0  0  0  0  0  0
    3.2960    3.2420    0.6150 N   0  0  0  0  0  0  0  0  0  0  0  0
   -1.8880    0.6800    3.3120 C   0  0  0  0  0  0  0  0  0  0  0  0
   -2.4110   -1.1520   -2.0350 C   0  0  0  0  0  0  0  0  0  0  0  0
   -0.7290   -2.7530   -0.9690 C   0  0  0  0  0  0  0  0  0  0  0  0
    4.2150    3.0570   -1.7170 C   0  0  0  0  0  0  0  0  0  0  0  0
    2.7180    1.9380   -3.1950 C   0  0  0  0  0  0  0  0  0  0  0  0
   -2.3820    1.9000    3.8520 O   0  0  0  0  0  0  0  0  0  0  0  0
    3.8990    2.5730   -2.9500 N   0  0  0  0  0  0  0  0  0  0  0  0
    5.3890    3.6770   -1.5180 N   0  0  0  0  0  0  0  0  0  0  0  0
   -0.6000    2.0780   -0.3750 H   0  0  0  0  0  0  0  0  0  0  0  0
    1.0520   -0.3550    0.4270 H   0  0  0  0  0  0  0  0  0  0  0  0
   -0.5660   -1.1260    1.8660 H   0  0  0  0  0  0  0  0  0  0  0  0
    1.8630    2.9530    2.1090 H   0  0  0  0  0  0  0  0  0  0  0  0
   -2.4240    1.2140    1.2900 H   0  0  0  0  0  0  0  0  0  0  0  0
   -2.6560   -0.0880    3.4220 H   0  0  0  0  0  0  0  0  0  0  0  0
   -1.0040    0.3790    3.8790 H   0  0  0  0  0  0  0  0  0  0  0  0
   -1.9650   -1.2980   -3.0210 H   0  0  0  0  0  0  0  0  0  0  0  0
   -3.2210   -1.8720   -1.9040 H   0  0  0  0  0  0  0  0  0  0  0  0
   -2.8320   -0.1460   -1.9920 H   0  0  0  0  0  0  0  0  0  0  0  0
   -0.2510   -2.9320   -1.9340 H   0  0  0  0  0  0  0  0  0  0  0  0
    0.0230   -2.8690   -0.1870 H   0  0  0  0  0  0  0  0  0  0  0  0
   -1.5040   -3.5060   -0.8150 H   0  0  0  0  0  0  0  0  0  0  0  0
    2.5130    1.5880   -4.1310 H   0  0  0  0  0  0  0  0  0  0  0  0
   -2.5820    1.6980    4.7900 H   0  0  0  0  0  0  0  0  0  0  0  0
    6.0140    3.7810   -2.2530 H   0  0  0  0  0  0  0  0  0  0  0  0
    5.6150    4.0220   -0.6400 H   0  0  0  0  0  0  0  0  0  0  0  0
  1  2  1  0  0  0  0
  1  4  1  0  0  0  0
  1  3  1  0  0  0  0
  1 23  1  0  0  0  0
  2 24  1  0  0  0  0
  2  5  1  0  0  0  0
  2  6  1  0  0  0  0
  3  8  1  0  0  0  0
  3  7  1  0  0  0  0
  4  9  1  0  0  0  0
  5  9  1  0  0  0  0
  5 25  1  0  0  0  0
  5 10  1  0  0  0  0
  6 11  1  0  0  0  0
  7 12  2  0  0  0  0
  7 13  1  0  0  0  0
  8 26  1  0  0  0  0
  8 14  2  0  0  0  0
  9 27  1  0  0  0  0
  9 15  1  0  0  0  0
 10 11  1  0  0  0  0
 11 16  1  0  0  0  0
 11 17  1  0  0  0  0
 12 14  1  0  0  0  0
 12 18  1  0  0  0  0
 13 19  2  0  0  0  0
 15 28  1  0  0  0  0
 15 20  1  0  0  0  0
 15 29  1  0  0  0  0
 16 32  1  0  0  0  0
 16 31  1  0  0  0  0
 16 30  1  0  0  0  0
 17 35  1  0  0  0  0
 17 34  1  0  0  0  0
 17 33  1  0  0  0  0
 18 22  1  0  0  0  0
 18 21  2  0  0  0  0
 19 21  1  0  0  0  0
 19 36  1  0  0  0  0
 20 37  1  0  0  0  0
 22 39  1  0  0  0  0
 22 38  1  0  0  0  0
M  END
