decoy-830
 OpenBabel06062114513D

 43 44  0  0  0  0  0  0  0  0999 V2000
    1.0730    0.6510   -1.0130 C   0  0  0  0  0  0  0  0  0  0  0  0
   -0.2280    0.1410   -0.7240 C   0  0  0  0  0  0  0  0  0  0  0  0
    1.7320    1.4790   -0.0390 C   0  0  0  0  0  0  0  0  0  0  0  0
    1.8450    0.2130   -2.5540 S   0  0  0  0  0  0  0  0  0  0  0  0
   -0.7970    0.3340    0.5610 C   0  0  0  0  0  0  0  0  0  0  0  0
   -0.8130   -0.7560   -1.4770 C   0  0  0  0  0  0  0  0  0  0  0  0
    1.1310    1.7090    1.2460 C   0  0  0  0  0  0  0  0  0  0  0  0
    3.0290    2.1320   -0.3960 C   0  0  0  0  0  0  0  0  0  0  0  0
    2.7950   -1.2460   -2.4040 C   0  0  0  0  0  0  0  0  0  0  0  0
    2.7750    1.3280   -3.2040 O   0  0  0  0  0  0  0  0  0  0  0  0
    0.7920   -0.0130   -3.7270 O   0  0  0  0  0  0  0  0  0  0  0  0
   -0.1150    1.0990    1.5170 C   0  0  0  0  0  0  0  0  0  0  0  0
   -2.0090   -0.1800    0.9490 N   0  0  0  0  0  0  0  0  0  0  0  0
   -1.2980   -1.5820   -2.1090 N   0  0  0  0  0  0  0  0  0  0  0  0
    1.7350    2.5740    2.3250 C   0  0  0  0  0  0  0  0  0  0  0  0
    2.1810   -2.5170   -2.4660 C   0  0  0  0  0  0  0  0  0  0  0  0
    4.1960   -1.1720   -2.2290 C   0  0  0  0  0  0  0  0  0  0  0  0
   -3.2050    0.2660    0.5800 C   0  0  0  0  0  0  0  0  0  0  0  0
    1.9040    3.8630    1.8700 F   0  0  0  0  0  0  0  0  0  0  0  0
    2.9420    2.0510    2.7330 F   0  0  0  0  0  0  0  0  0  0  0  0
    0.9940    2.7130    3.4820 F   0  0  0  0  0  0  0  0  0  0  0  0
    2.9500   -3.6910   -2.3540 C   0  0  0  0  0  0  0  0  0  0  0  0
    4.9670   -2.3460   -2.1270 C   0  0  0  0  0  0  0  0  0  0  0  0
   -4.3820   -0.3730    1.1530 C   0  0  0  0  0  0  0  0  0  0  0  0
   -3.3100    1.2200   -0.1850 O   0  0  0  0  0  0  0  0  0  0  0  0
    4.3460   -3.6080   -2.1890 C   0  0  0  0  0  0  0  0  0  0  0  0
   -5.7380    0.3240    0.8830 C   0  0  0  0  0  0  0  0  0  0  0  0
   -4.4540   -1.7050    0.6470 O   0  0  0  0  0  0  0  0  0  0  0  0
    5.0660   -4.6910   -2.1010 F   0  0  0  0  0  0  0  0  0  0  0  0
    3.7490    1.3770   -0.7080 H   0  0  0  0  0  0  0  0  0  0  0  0
    3.5100    2.6900    0.4020 H   0  0  0  0  0  0  0  0  0  0  0  0
    2.8620    2.8390   -1.2100 H   0  0  0  0  0  0  0  0  0  0  0  0
   -0.5600    1.2350    2.4300 H   0  0  0  0  0  0  0  0  0  0  0  0
   -1.9950   -0.8810    1.6250 H   0  0  0  0  0  0  0  0  0  0  0  0
    1.1740   -2.5990   -2.6140 H   0  0  0  0  0  0  0  0  0  0  0  0
    4.6720   -0.2670   -2.1960 H   0  0  0  0  0  0  0  0  0  0  0  0
    2.4870   -4.6030   -2.3910 H   0  0  0  0  0  0  0  0  0  0  0  0
    5.9810   -2.2770   -2.0040 H   0  0  0  0  0  0  0  0  0  0  0  0
   -4.2550   -0.4220    2.2370 H   0  0  0  0  0  0  0  0  0  0  0  0
   -5.7370    1.3380    1.2920 H   0  0  0  0  0  0  0  0  0  0  0  0
   -6.5400   -0.2410    1.3710 H   0  0  0  0  0  0  0  0  0  0  0  0
   -5.9440    0.3690   -0.1890 H   0  0  0  0  0  0  0  0  0  0  0  0
   -4.5940   -1.6030   -0.3190 H   0  0  0  0  0  0  0  0  0  0  0  0
  1  2  2  0  0  0  0
  1  3  1  0  0  0  0
  1  4  1  0  0  0  0
  2  5  1  0  0  0  0
  2  6  1  0  0  0  0
  3  7  2  0  0  0  0
  3  8  1  0  0  0  0
  4  9  1  0  0  0  0
  4 10  2  0  0  0  0
  4 11  2  0  0  0  0
  5 13  1  0  0  0  0
  5 12  2  0  0  0  0
  6 14  3  0  0  0  0
  7 12  1  0  0  0  0
  7 15  1  0  0  0  0
  8 31  1  0  0  0  0
  8 30  1  0  0  0  0
  8 32  1  0  0  0  0
  9 17  2  0  0  0  0
  9 16  1  0  0  0  0
 12 33  1  0  0  0  0
 13 34  1  0  0  0  0
 13 18  1  0  0  0  0
 15 20  1  0  0  0  0
 15 21  1  0  0  0  0
 15 19  1  0  0  0  0
 16 22  2  0  0  0  0
 16 35  1  0  0  0  0
 17 36  1  0  0  0  0
 17 23  1  0  0  0  0
 18 24  1  0  0  0  0
 18 25  2  0  0  0  0
 22 26  1  0  0  0  0
 22 37  1  0  0  0  0
 23 38  1  0  0  0  0
 23 26  2  0  0  0  0
 24 39  1  0  0  0  0
 24 27  1  0  0  0  0
 24 28  1  0  0  0  0
 26 29  1  0  0  0  0
 27 40  1  0  0  0  0
 27 41  1  0  0  0  0
 27 42  1  0  0  0  0
 28 43  1  0  0  0  0
M  END
