decoy-433
 OpenBabel06062114513D

 45 47  0  0  0  0  0  0  0  0999 V2000
    0.4000    0.8690    0.0030 C   0  0  0  0  0  0  0  0  0  0  0  0
    0.3510   -0.3980   -0.6380 C   0  0  0  0  0  0  0  0  0  0  0  0
    1.6190    1.5900   -0.0140 C   0  0  0  0  0  0  0  0  0  0  0  0
   -0.7990    1.4350    0.6860 C   0  0  0  0  0  0  0  0  0  0  0  0
   -0.8130   -1.1210   -0.6760 O   0  0  0  0  0  0  0  0  0  0  0  0
    1.4840   -0.8920   -1.3190 C   0  0  0  0  0  0  0  0  0  0  0  0
    2.7600    1.0750   -0.6590 C   0  0  0  0  0  0  0  0  0  0  0  0
   -1.9140    1.7880   -0.2160 C   0  0  0  0  0  0  0  0  0  0  0  0
   -0.8820   -2.1810    0.2980 C   0  0  0  0  0  0  0  0  0  0  0  0
    2.6830   -0.1600   -1.3280 C   0  0  0  0  0  0  0  0  0  0  0  0
    3.9190    1.8010   -0.6940 O   0  0  0  0  0  0  0  0  0  0  0  0
   -3.0700    2.2470    0.3110 O   0  0  0  0  0  0  0  0  0  0  0  0
   -1.8140    1.7260   -1.5640 O   0  0  0  0  0  0  0  0  0  0  0  0
   -2.2340   -2.7870    0.2390 C   0  0  0  0  0  0  0  0  0  0  0  0
    4.8070    1.5200    0.4060 C   0  0  0  0  0  0  0  0  0  0  0  0
   -2.4220   -4.1380   -0.1350 C   0  0  0  0  0  0  0  0  0  0  0  0
   -3.3690   -2.0060    0.5600 C   0  0  0  0  0  0  0  0  0  0  0  0
    6.0430    2.3210    0.2360 C   0  0  0  0  0  0  0  0  0  0  0  0
   -3.7140   -4.6940   -0.1870 C   0  0  0  0  0  0  0  0  0  0  0  0
   -4.6610   -2.5620    0.5080 C   0  0  0  0  0  0  0  0  0  0  0  0
    6.4180    3.3110    1.1750 C   0  0  0  0  0  0  0  0  0  0  0  0
    6.8780    2.0970   -0.8850 C   0  0  0  0  0  0  0  0  0  0  0  0
   -4.8340   -3.9060    0.1340 C   0  0  0  0  0  0  0  0  0  0  0  0
    7.5960    4.0610    0.9950 C   0  0  0  0  0  0  0  0  0  0  0  0
    8.0550    2.8460   -1.0640 C   0  0  0  0  0  0  0  0  0  0  0  0
    8.4150    3.8280   -0.1240 C   0  0  0  0  0  0  0  0  0  0  0  0
    1.6830    2.5040    0.4410 H   0  0  0  0  0  0  0  0  0  0  0  0
   -1.1600    0.7090    1.4160 H   0  0  0  0  0  0  0  0  0  0  0  0
   -0.5390    2.3390    1.2420 H   0  0  0  0  0  0  0  0  0  0  0  0
    1.4360   -1.7880   -1.8100 H   0  0  0  0  0  0  0  0  0  0  0  0
   -0.1100   -2.9270    0.0890 H   0  0  0  0  0  0  0  0  0  0  0  0
   -0.7180   -1.8010    1.3110 H   0  0  0  0  0  0  0  0  0  0  0  0
    3.4990   -0.5280   -1.8230 H   0  0  0  0  0  0  0  0  0  0  0  0
    4.3140    1.7620    1.3530 H   0  0  0  0  0  0  0  0  0  0  0  0
    5.0810    0.4610    0.4270 H   0  0  0  0  0  0  0  0  0  0  0  0
   -1.6210   -4.7280   -0.3740 H   0  0  0  0  0  0  0  0  0  0  0  0
   -3.2620   -1.0270    0.8360 H   0  0  0  0  0  0  0  0  0  0  0  0
   -3.8400   -5.6720   -0.4590 H   0  0  0  0  0  0  0  0  0  0  0  0
   -5.4750   -1.9880    0.7420 H   0  0  0  0  0  0  0  0  0  0  0  0
    5.8350    3.4970    1.9950 H   0  0  0  0  0  0  0  0  0  0  0  0
    6.6310    1.3860   -1.5780 H   0  0  0  0  0  0  0  0  0  0  0  0
   -5.7720   -4.3100    0.0960 H   0  0  0  0  0  0  0  0  0  0  0  0
    7.8570    4.7750    1.6790 H   0  0  0  0  0  0  0  0  0  0  0  0
    8.6510    2.6760   -1.8780 H   0  0  0  0  0  0  0  0  0  0  0  0
    9.2700    4.3730   -0.2540 H   0  0  0  0  0  0  0  0  0  0  0  0
  1  4  1  0  0  0  0
  1  2  2  0  0  0  0
  1  3  1  0  0  0  0
  2  5  1  0  0  0  0
  2  6  1  0  0  0  0
  3 27  1  0  0  0  0
  3  7  2  0  0  0  0
  4 29  1  0  0  0  0
  4 28  1  0  0  0  0
  4  8  1  0  0  0  0
  5  9  1  0  0  0  0
  6 10  2  0  0  0  0
  6 30  1  0  0  0  0
  7 10  1  0  0  0  0
  7 11  1  0  0  0  0
  8 12  1  0  0  0  0
  8 13  2  0  0  0  0
  9 32  1  0  0  0  0
  9 14  1  0  0  0  0
  9 31  1  0  0  0  0
 10 33  1  0  0  0  0
 11 15  1  0  0  0  0
 14 17  2  0  0  0  0
 14 16  1  0  0  0  0
 15 35  1  0  0  0  0
 15 34  1  0  0  0  0
 15 18  1  0  0  0  0
 16 19  2  0  0  0  0
 16 36  1  0  0  0  0
 17 37  1  0  0  0  0
 17 20  1  0  0  0  0
 18 21  2  0  0  0  0
 18 22  1  0  0  0  0
 19 23  1  0  0  0  0
 19 38  1  0  0  0  0
 20 39  1  0  0  0  0
 20 23  2  0  0  0  0
 21 40  1  0  0  0  0
 21 24  1  0  0  0  0
 22 25  2  0  0  0  0
 22 41  1  0  0  0  0
 23 42  1  0  0  0  0
 24 43  1  0  0  0  0
 24 26  2  0  0  0  0
 25 26  1  0  0  0  0
 25 44  1  0  0  0  0
 26 45  1  0  0  0  0
M  END
