decoy-966
 OpenBabel06062114513D

 70 73  0  0  0  0  0  0  0  0999 V2000
    0.2390    1.2270   -0.8130 C   0  0  0  0  0  0  0  0  0  0  0  0
    0.0180   -0.3230   -0.8030 C   0  0  0  0  0  0  0  0  0  0  0  0
    1.7360    1.6560   -1.0300 C   0  0  0  0  0  0  0  0  0  0  0  0
   -0.5460    2.1030   -1.8060 C   0  0  0  0  0  0  0  0  0  0  0  0
    0.8460   -0.9380    0.3860 C   0  0  0  0  0  0  0  0  0  0  0  0
   -1.3820   -0.7250   -0.7140 C   0  0  0  0  0  0  0  0  0  0  0  0
    1.5730    3.2290   -1.0170 C   0  0  0  0  0  0  0  0  0  0  0  0
    2.5470    1.0240    0.1590 C   0  0  0  0  0  0  0  0  0  0  0  0
    2.3570    1.1850   -2.4000 C   0  0  0  0  0  0  0  0  0  0  0  0
    0.2320    3.4390   -1.8010 C   0  0  0  0  0  0  0  0  0  0  0  0
    0.5290   -2.4830    0.5720 C   0  0  0  0  0  0  0  0  0  0  0  0
    2.3510   -0.5190    0.3010 C   0  0  0  0  0  0  0  0  0  0  0  0
   -1.7910   -1.8330   -0.0720 C   0  0  0  0  0  0  0  0  0  0  0  0
    2.7370    4.1830   -1.5090 C   0  0  0  0  0  0  0  0  0  0  0  0
   -0.9550   -2.6630    0.6470 C   0  0  0  0  0  0  0  0  0  0  0  0
    1.1850   -2.9950    1.9110 C   0  0  0  0  0  0  0  0  0  0  0  0
    1.0650   -3.3470   -0.6240 C   0  0  0  0  0  0  0  0  0  0  0  0
    2.3500    5.7030   -1.3860 C   0  0  0  0  0  0  0  0  0  0  0  0
    4.0780    3.9210   -0.7570 C   0  0  0  0  0  0  0  0  0  0  0  0
   -1.4990   -3.6650    1.3810 C   0  0  0  0  0  0  0  0  0  0  0  0
    0.6540   -4.3830    2.3620 C   0  0  0  0  0  0  0  0  0  0  0  0
    3.2020    6.6850   -2.2430 C   0  0  0  0  0  0  0  0  0  0  0  0
   -0.7710   -4.5390    2.1290 C   0  0  0  0  0  0  0  0  0  0  0  0
    2.6960    8.1530   -2.1580 C   0  0  0  0  0  0  0  0  0  0  0  0
   -1.3130   -5.5510    2.5550 O   0  0  0  0  0  0  0  0  0  0  0  0
    3.4330    9.1620   -3.0970 C   0  0  0  0  0  0  0  0  0  0  0  0
    2.7020   10.5340   -3.1060 C   0  0  0  0  0  0  0  0  0  0  0  0
    4.9300    9.3560   -2.7280 C   0  0  0  0  0  0  0  0  0  0  0  0
   -0.0860    1.5720    0.1800 H   0  0  0  0  0  0  0  0  0  0  0  0
    0.3730   -0.7220   -1.7520 H   0  0  0  0  0  0  0  0  0  0  0  0
    0.4730   -0.4520    1.2970 H   0  0  0  0  0  0  0  0  0  0  0  0
   -0.5500    1.6500   -2.8010 H   0  0  0  0  0  0  0  0  0  0  0  0
   -1.5820    2.2460   -1.4830 H   0  0  0  0  0  0  0  0  0  0  0  0
   -2.0520   -0.2300   -1.2570 H   0  0  0  0  0  0  0  0  0  0  0  0
    1.3790    3.5210    0.0230 H   0  0  0  0  0  0  0  0  0  0  0  0
    3.6150    1.2070    0.0420 H   0  0  0  0  0  0  0  0  0  0  0  0
    2.2460    1.4950    1.0990 H   0  0  0  0  0  0  0  0  0  0  0  0
    1.8370    1.6190   -3.2540 H   0  0  0  0  0  0  0  0  0  0  0  0
    3.4030    1.4790   -2.4720 H   0  0  0  0  0  0  0  0  0  0  0  0
    2.3290    0.1040   -2.5210 H   0  0  0  0  0  0  0  0  0  0  0  0
    0.4190    3.7470   -2.8340 H   0  0  0  0  0  0  0  0  0  0  0  0
   -0.3730    4.2130   -1.3180 H   0  0  0  0  0  0  0  0  0  0  0  0
    2.8720   -0.8330    1.2080 H   0  0  0  0  0  0  0  0  0  0  0  0
    2.8330   -1.0220   -0.5380 H   0  0  0  0  0  0  0  0  0  0  0  0
   -2.7640   -2.0460   -0.1290 H   0  0  0  0  0  0  0  0  0  0  0  0
    2.9110    3.9760   -2.5690 H   0  0  0  0  0  0  0  0  0  0  0  0
    2.2720   -3.0540    1.8180 H   0  0  0  0  0  0  0  0  0  0  0  0
    0.9650   -2.2860    2.7160 H   0  0  0  0  0  0  0  0  0  0  0  0
    0.6480   -3.0200   -1.5770 H   0  0  0  0  0  0  0  0  0  0  0  0
    2.1520   -3.2900   -0.6930 H   0  0  0  0  0  0  0  0  0  0  0  0
    0.7980   -4.3980   -0.5030 H   0  0  0  0  0  0  0  0  0  0  0  0
    1.3170    5.8440   -1.7040 H   0  0  0  0  0  0  0  0  0  0  0  0
    2.4020    6.0040   -0.3350 H   0  0  0  0  0  0  0  0  0  0  0  0
    4.5120    2.9710   -1.0550 H   0  0  0  0  0  0  0  0  0  0  0  0
    4.8270    4.6770   -0.9840 H   0  0  0  0  0  0  0  0  0  0  0  0
    3.9180    3.9160    0.3230 H   0  0  0  0  0  0  0  0  0  0  0  0
   -2.4900   -3.7790    1.3940 H   0  0  0  0  0  0  0  0  0  0  0  0
    1.1850   -5.1720    1.8220 H   0  0  0  0  0  0  0  0  0  0  0  0
    0.8650   -4.5100    3.4280 H   0  0  0  0  0  0  0  0  0  0  0  0
    4.2370    6.6560   -1.9050 H   0  0  0  0  0  0  0  0  0  0  0  0
    3.1730    6.3610   -3.2860 H   0  0  0  0  0  0  0  0  0  0  0  0
    1.6340    8.1550   -2.4200 H   0  0  0  0  0  0  0  0  0  0  0  0
    2.7790    8.4980   -1.1230 H   0  0  0  0  0  0  0  0  0  0  0  0
    3.3900    8.7690   -4.1180 H   0  0  0  0  0  0  0  0  0  0  0  0
    3.1890   11.2220   -3.8010 H   0  0  0  0  0  0  0  0  0  0  0  0
    1.6650   10.4120   -3.4260 H   0  0  0  0  0  0  0  0  0  0  0  0
    2.7100   10.9810   -2.1090 H   0  0  0  0  0  0  0  0  0  0  0  0
    5.4850    8.4270   -2.8590 H   0  0  0  0  0  0  0  0  0  0  0  0
    5.3890   10.1060   -3.3760 H   0  0  0  0  0  0  0  0  0  0  0  0
    5.0320    9.6830   -1.6910 H   0  0  0  0  0  0  0  0  0  0  0  0
  1  3  1  0  0  0  0
  1 29  1  0  0  0  0
  1  2  1  0  0  0  0
  1  4  1  0  0  0  0
  2  6  1  0  0  0  0
  2  5  1  0  0  0  0
  2 30  1  0  0  0  0
  3  7  1  0  0  0  0
  3  8  1  0  0  0  0
  3  9  1  0  0  0  0
  4 10  1  0  0  0  0
  4 33  1  0  0  0  0
  4 32  1  0  0  0  0
  5 31  1  0  0  0  0
  5 11  1  0  0  0  0
  5 12  1  0  0  0  0
  6 13  2  0  0  0  0
  6 34  1  0  0  0  0
  7 35  1  0  0  0  0
  7 10  1  0  0  0  0
  7 14  1  0  0  0  0
  8 12  1  0  0  0  0
  8 37  1  0  0  0  0
  8 36  1  0  0  0  0
  9 38  1  0  0  0  0
  9 39  1  0  0  0  0
  9 40  1  0  0  0  0
 10 42  1  0  0  0  0
 10 41  1  0  0  0  0
 11 15  1  0  0  0  0
 11 16  1  0  0  0  0
 11 17  1  0  0  0  0
 12 43  1  0  0  0  0
 12 44  1  0  0  0  0
 13 15  1  0  0  0  0
 13 45  1  0  0  0  0
 14 46  1  0  0  0  0
 14 18  1  0  0  0  0
 14 19  1  0  0  0  0
 15 20  2  0  0  0  0
 16 21  1  0  0  0  0
 16 48  1  0  0  0  0
 16 47  1  0  0  0  0
 17 51  1  0  0  0  0
 17 49  1  0  0  0  0
 17 50  1  0  0  0  0
 18 53  1  0  0  0  0
 18 22  1  0  0  0  0
 18 52  1  0  0  0  0
 19 56  1  0  0  0  0
 19 54  1  0  0  0  0
 19 55  1  0  0  0  0
 20 57  1  0  0  0  0
 20 23  1  0  0  0  0
 21 59  1  0  0  0  0
 21 23  1  0  0  0  0
 21 58  1  0  0  0  0
 22 24  1  0  0  0  0
 22 60  1  0  0  0  0
 22 61  1  0  0  0  0
 23 25  2  0  0  0  0
 24 63  1  0  0  0  0
 24 26  1  0  0  0  0
 24 62  1  0  0  0  0
 26 28  1  0  0  0  0
 26 27  1  0  0  0  0
 26 64  1  0  0  0  0
 27 67  1  0  0  0  0
 27 65  1  0  0  0  0
 27 66  1  0  0  0  0
 28 70  1  0  0  0  0
 28 68  1  0  0  0  0
 28 69  1  0  0  0  0
M  END
