decoy-687
 OpenBabel06062114513D

 61 64  0  0  0  0  0  0  0  0999 V2000
   -0.4260   -0.2240   -1.0230 C   0  0  0  0  0  0  0  0  0  0  0  0
   -1.8180    0.4020   -0.6720 C   0  0  0  0  0  0  0  0  0  0  0  0
    0.7400    0.7990   -1.2570 C   0  0  0  0  0  0  0  0  0  0  0  0
   -0.7390   -1.2710   -2.1080 C   0  0  0  0  0  0  0  0  0  0  0  0
   -2.7450   -0.9040   -0.5740 C   0  0  0  0  0  0  0  0  0  0  0  0
   -1.5780    1.2610    0.6280 C   0  0  0  0  0  0  0  0  0  0  0  0
   -2.3690    1.3640   -1.8040 C   0  0  0  0  0  0  0  0  0  0  0  0
    0.9540    1.6750    0.0410 C   0  0  0  0  0  0  0  0  0  0  0  0
    2.0650    0.0710   -1.6410 C   0  0  0  0  0  0  0  0  0  0  0  0
   -2.1980   -1.7410   -1.8210 C   0  0  0  0  0  0  0  0  0  0  0  0
   -4.2130   -0.6330   -0.6570 C   0  0  0  0  0  0  0  0  0  0  0  0
   -2.5550   -1.7420    0.7530 C   0  0  0  0  0  0  0  0  0  0  0  0
   -0.4010    2.2890    0.5600 C   0  0  0  0  0  0  0  0  0  0  0  0
    2.2070    2.6550   -0.0690 C   0  0  0  0  0  0  0  0  0  0  0  0
    3.2650    1.0420   -1.7420 C   0  0  0  0  0  0  0  0  0  0  0  0
   -2.3290   -3.2920   -1.7890 C   0  0  0  0  0  0  0  0  0  0  0  0
   -5.0030    0.0390    0.3760 C   0  0  0  0  0  0  0  0  0  0  0  0
   -4.8820   -1.1820   -1.5260 O   0  0  0  0  0  0  0  0  0  0  0  0
   -0.8000    3.4620   -0.1440 O   0  0  0  0  0  0  0  0  0  0  0  0
    3.3820    1.8350   -0.5130 C   0  0  0  0  0  0  0  0  0  0  0  0
    2.4520    3.2920    1.2480 C   0  0  0  0  0  0  0  0  0  0  0  0
    2.0280    3.8380   -1.0860 C   0  0  0  0  0  0  0  0  0  0  0  0
   -5.9800    1.1160   -0.1540 C   0  0  0  0  0  0  0  0  0  0  0  0
    4.5080    1.7580    0.2350 C   0  0  0  0  0  0  0  0  0  0  0  0
    3.6050    3.1570    1.9250 C   0  0  0  0  0  0  0  0  0  0  0  0
    4.6240    2.4130    1.4240 C   0  0  0  0  0  0  0  0  0  0  0  0
    5.6650    2.3200    2.0620 O   0  0  0  0  0  0  0  0  0  0  0  0
   -0.0850   -0.8070   -0.1620 H   0  0  0  0  0  0  0  0  0  0  0  0
    0.4850    1.4450   -2.0970 H   0  0  0  0  0  0  0  0  0  0  0  0
    1.2310    0.9570    0.8250 H   0  0  0  0  0  0  0  0  0  0  0  0
   -0.6660   -0.8140   -3.0990 H   0  0  0  0  0  0  0  0  0  0  0  0
   -0.0190   -2.0940   -2.0620 H   0  0  0  0  0  0  0  0  0  0  0  0
   -2.4860    1.8030    0.8960 H   0  0  0  0  0  0  0  0  0  0  0  0
   -1.3510    0.5980    1.4650 H   0  0  0  0  0  0  0  0  0  0  0  0
   -1.6390    2.0850   -2.1500 H   0  0  0  0  0  0  0  0  0  0  0  0
   -3.2230    1.9290   -1.4380 H   0  0  0  0  0  0  0  0  0  0  0  0
   -2.6960    0.8250   -2.6910 H   0  0  0  0  0  0  0  0  0  0  0  0
    2.2970   -0.6970   -0.8970 H   0  0  0  0  0  0  0  0  0  0  0  0
    1.9470   -0.4280   -2.6070 H   0  0  0  0  0  0  0  0  0  0  0  0
   -2.7670   -1.4550   -2.7110 H   0  0  0  0  0  0  0  0  0  0  0  0
   -1.5410   -2.1200    0.8690 H   0  0  0  0  0  0  0  0  0  0  0  0
   -3.2200   -2.6090    0.7640 H   0  0  0  0  0  0  0  0  0  0  0  0
   -2.7880   -1.1610    1.6450 H   0  0  0  0  0  0  0  0  0  0  0  0
   -0.2480    2.6270    1.5880 H   0  0  0  0  0  0  0  0  0  0  0  0
    4.1620    0.4510   -1.9510 H   0  0  0  0  0  0  0  0  0  0  0  0
    3.1270    1.7070   -2.5970 H   0  0  0  0  0  0  0  0  0  0  0  0
   -2.0370   -3.7130   -2.7540 H   0  0  0  0  0  0  0  0  0  0  0  0
   -3.3630   -3.5810   -1.5920 H   0  0  0  0  0  0  0  0  0  0  0  0
   -1.6880   -3.7280   -1.0220 H   0  0  0  0  0  0  0  0  0  0  0  0
   -5.5920   -0.7210    0.8990 H   0  0  0  0  0  0  0  0  0  0  0  0
   -4.3640    0.5090    1.1200 H   0  0  0  0  0  0  0  0  0  0  0  0
   -0.6320    3.2750   -1.0880 H   0  0  0  0  0  0  0  0  0  0  0  0
    1.7520    3.8790    1.6430 H   0  0  0  0  0  0  0  0  0  0  0  0
    1.6530    3.4930   -2.0490 H   0  0  0  0  0  0  0  0  0  0  0  0
    2.9830    4.3420   -1.2610 H   0  0  0  0  0  0  0  0  0  0  0  0
    1.3340    4.5960   -0.7200 H   0  0  0  0  0  0  0  0  0  0  0  0
   -5.4410    1.9180   -0.6580 H   0  0  0  0  0  0  0  0  0  0  0  0
   -6.5360    1.5480    0.6800 H   0  0  0  0  0  0  0  0  0  0  0  0
   -6.6960    0.6790   -0.8530 H   0  0  0  0  0  0  0  0  0  0  0  0
    5.2720    1.1990   -0.0720 H   0  0  0  0  0  0  0  0  0  0  0  0
    3.7120    3.6240    2.7980 H   0  0  0  0  0  0  0  0  0  0  0  0
  1  3  1  0  0  0  0
  1 28  1  0  0  0  0
  1  2  1  0  0  0  0
  1  4  1  0  0  0  0
  2  5  1  0  0  0  0
  2  6  1  0  0  0  0
  2  7  1  0  0  0  0
  3  8  1  0  0  0  0
  3  9  1  0  0  0  0
  3 29  1  0  0  0  0
  4 32  1  0  0  0  0
  4 10  1  0  0  0  0
  4 31  1  0  0  0  0
  5 10  1  0  0  0  0
  5 12  1  0  0  0  0
  5 11  1  0  0  0  0
  6 33  1  0  0  0  0
  6 34  1  0  0  0  0
  6 13  1  0  0  0  0
  7 36  1  0  0  0  0
  7 35  1  0  0  0  0
  7 37  1  0  0  0  0
  8 14  1  0  0  0  0
  8 30  1  0  0  0  0
  8 13  1  0  0  0  0
  9 38  1  0  0  0  0
  9 15  1  0  0  0  0
  9 39  1  0  0  0  0
 10 40  1  0  0  0  0
 10 16  1  0  0  0  0
 11 17  1  0  0  0  0
 11 18  2  0  0  0  0
 12 42  1  0  0  0  0
 12 41  1  0  0  0  0
 12 43  1  0  0  0  0
 13 44  1  0  0  0  0
 13 19  1  0  0  0  0
 14 22  1  0  0  0  0
 14 21  1  0  0  0  0
 14 20  1  0  0  0  0
 15 20  1  0  0  0  0
 15 45  1  0  0  0  0
 15 46  1  0  0  0  0
 16 48  1  0  0  0  0
 16 49  1  0  0  0  0
 16 47  1  0  0  0  0
 17 50  1  0  0  0  0
 17 51  1  0  0  0  0
 17 23  1  0  0  0  0
 19 52  1  0  0  0  0
 20 24  2  0  0  0  0
 21 53  1  0  0  0  0
 21 25  2  0  0  0  0
 22 56  1  0  0  0  0
 22 54  1  0  0  0  0
 22 55  1  0  0  0  0
 23 58  1  0  0  0  0
 23 57  1  0  0  0  0
 23 59  1  0  0  0  0
 24 26  1  0  0  0  0
 24 60  1  0  0  0  0
 25 61  1  0  0  0  0
 25 26  1  0  0  0  0
 26 27  2  0  0  0  0
M  END
