decoy-604
 OpenBabel06062114513D

 15 15  0  0  0  0  0  0  0  0999 V2000
   -0.0660    1.3760    0.0060 C   0  0  0  0  0  0  0  0  0  0  0  0
   -0.0250   -0.0460    0.0000 C   0  0  0  0  0  0  0  0  0  0  0  0
    1.1570    2.0990   -0.0010 C   0  0  0  0  0  0  0  0  0  0  0  0
   -1.3470    2.1360    0.0190 C   0  0  0  0  0  0  0  0  0  0  0  0
    1.2170   -0.7230   -0.0130 C   0  0  0  0  0  0  0  0  0  0  0  0
   -1.5890   -1.0750    0.0080 Br  0  0  0  0  0  0  0  0  0  0  0  0
    2.3950    1.4170   -0.0140 C   0  0  0  0  0  0  0  0  0  0  0  0
    1.1610    3.9710    0.0060 Br  0  0  0  0  0  0  0  0  0  0  0  0
    2.4240    0.0070   -0.0200 C   0  0  0  0  0  0  0  0  0  0  0  0
    1.2760   -2.5920   -0.0210 Br  0  0  0  0  0  0  0  0  0  0  0  0
    3.9990    2.3770   -0.0240 Br  0  0  0  0  0  0  0  0  0  0  0  0
    4.0630   -0.8910   -0.0370 Br  0  0  0  0  0  0  0  0  0  0  0  0
   -2.2370    1.5110    0.0240 H   0  0  0  0  0  0  0  0  0  0  0  0
   -1.3900    2.7650    0.9110 H   0  0  0  0  0  0  0  0  0  0  0  0
   -1.4040    2.7720   -0.8660 H   0  0  0  0  0  0  0  0  0  0  0  0
  1  4  1  0  0  0  0
  1  2  2  0  0  0  0
  1  3  1  0  0  0  0
  2  6  1  0  0  0  0
  2  5  1  0  0  0  0
  3  8  1  0  0  0  0
  3  7  2  0  0  0  0
  4 13  1  0  0  0  0
  4 14  1  0  0  0  0
  4 15  1  0  0  0  0
  5  9  2  0  0  0  0
  5 10  1  0  0  0  0
  7  9  1  0  0  0  0
  7 11  1  0  0  0  0
  9 12  1  0  0  0  0
M  END
