decoy-683
 OpenBabel06062114513D

 16 17  0  0  0  0  0  0  0  0999 V2000
   -0.0580    1.3970    0.0120 C   0  0  0  0  0  0  0  0  0  0  0  0
   -0.0390    0.0020    0.0040 C   0  0  0  0  0  0  0  0  0  0  0  0
    1.1400    2.1410    0.0030 C   0  0  0  0  0  0  0  0  0  0  0  0
   -1.3760    1.7620    0.0290 C   0  0  0  0  0  0  0  0  0  0  0  0
    1.1780   -0.7090   -0.0130 C   0  0  0  0  0  0  0  0  0  0  0  0
   -1.3460   -0.3980    0.0160 C   0  0  0  0  0  0  0  0  0  0  0  0
    2.3710    1.4420   -0.0140 C   0  0  0  0  0  0  0  0  0  0  0  0
    1.0820    4.0060    0.0150 Br  0  0  0  0  0  0  0  0  0  0  0  0
   -2.1090    0.6720    0.0300 N   0  0  0  0  0  0  0  0  0  0  0  0
   -1.8360    2.8930    0.0400 O   0  0  0  0  0  0  0  0  0  0  0  0
    2.3900    0.0230   -0.0220 C   0  0  0  0  0  0  0  0  0  0  0  0
    1.1710   -2.5750   -0.0240 Br  0  0  0  0  0  0  0  0  0  0  0  0
   -1.7760   -1.5420    0.0140 O   0  0  0  0  0  0  0  0  0  0  0  0
    3.9740    2.4010   -0.0260 Br  0  0  0  0  0  0  0  0  0  0  0  0
    4.0180   -0.8910   -0.0450 Br  0  0  0  0  0  0  0  0  0  0  0  0
   -3.0790    0.6580    0.0410 H   0  0  0  0  0  0  0  0  0  0  0  0
  1  4  1  0  0  0  0
  1  2  2  0  0  0  0
  1  3  1  0  0  0  0
  2  6  1  0  0  0  0
  2  5  1  0  0  0  0
  3  8  1  0  0  0  0
  3  7  2  0  0  0  0
  4  9  1  0  0  0  0
  4 10  2  0  0  0  0
  5 11  2  0  0  0  0
  5 12  1  0  0  0  0
  6  9  1  0  0  0  0
  6 13  2  0  0  0  0
  7 11  1  0  0  0  0
  7 14  1  0  0  0  0
  9 16  1  0  0  0  0
 11 15  1  0  0  0  0
M  END
