decoy-955
 OpenBabel06062114513D

 42 44  0  0  0  0  0  0  0  0999 V2000
    3.2330    0.3580    1.3280 C   0  0  0  0  0  0  0  0  0  0  0  0
    2.3870   -0.9570    2.0350 S   0  0  0  0  0  0  0  0  0  0  0  0
    4.8690    0.5180    1.8110 S   0  0  0  0  0  0  0  0  0  0  0  0
    2.7070    1.2510    0.4690 C   0  0  0  0  0  0  0  0  0  0  0  0
    1.3830   -0.0520    3.1370 C   0  0  0  0  0  0  0  0  0  0  0  0
    5.5190   -0.5280    0.5800 C   0  0  0  0  0  0  0  0  0  0  0  0
    1.3720    1.2420   -0.0970 C   0  0  0  0  0  0  0  0  0  0  0  0
    1.9420    0.7500    4.1570 C   0  0  0  0  0  0  0  0  0  0  0  0
   -0.0200   -0.1570    3.0310 C   0  0  0  0  0  0  0  0  0  0  0  0
    5.8440   -0.0140   -0.6930 C   0  0  0  0  0  0  0  0  0  0  0  0
    5.7480   -1.8910    0.8600 C   0  0  0  0  0  0  0  0  0  0  0  0
    0.4420    2.6450    0.5640 S   0  0  0  0  0  0  0  0  0  0  0  0
    1.1070    1.4640    5.0360 C   0  0  0  0  0  0  0  0  0  0  0  0
   -0.8540    0.5570    3.9120 C   0  0  0  0  0  0  0  0  0  0  0  0
    6.3760   -0.8610   -1.6840 C   0  0  0  0  0  0  0  0  0  0  0  0
    6.2810   -2.7370   -0.1310 C   0  0  0  0  0  0  0  0  0  0  0  0
   -1.0020    2.3870   -0.3740 C   0  0  0  0  0  0  0  0  0  0  0  0
   -0.2920    1.3710    4.9110 C   0  0  0  0  0  0  0  0  0  0  0  0
    6.5930   -2.2230   -1.4030 C   0  0  0  0  0  0  0  0  0  0  0  0
   -2.0820    1.6630    0.1730 C   0  0  0  0  0  0  0  0  0  0  0  0
   -1.1080    2.9210   -1.6750 C   0  0  0  0  0  0  0  0  0  0  0  0
   -3.2530    1.4620   -0.5820 C   0  0  0  0  0  0  0  0  0  0  0  0
   -2.2800    2.7180   -2.4290 C   0  0  0  0  0  0  0  0  0  0  0  0
   -3.3510    1.9880   -1.8830 C   0  0  0  0  0  0  0  0  0  0  0  0
    3.2910    2.0010    0.1730 H   0  0  0  0  0  0  0  0  0  0  0  0
    1.4560    1.3350   -1.1820 H   0  0  0  0  0  0  0  0  0  0  0  0
    0.8300    0.3200    0.1170 H   0  0  0  0  0  0  0  0  0  0  0  0
    2.9550    0.8180    4.2660 H   0  0  0  0  0  0  0  0  0  0  0  0
   -0.4420   -0.7470    2.3100 H   0  0  0  0  0  0  0  0  0  0  0  0
    5.6930    0.9750   -0.9060 H   0  0  0  0  0  0  0  0  0  0  0  0
    5.5260   -2.2750    1.7810 H   0  0  0  0  0  0  0  0  0  0  0  0
    1.5160    2.0490    5.7680 H   0  0  0  0  0  0  0  0  0  0  0  0
   -1.8700    0.4830    3.8260 H   0  0  0  0  0  0  0  0  0  0  0  0
    6.6060   -0.4860   -2.6070 H   0  0  0  0  0  0  0  0  0  0  0  0
    6.4420   -3.7260    0.0730 H   0  0  0  0  0  0  0  0  0  0  0  0
   -0.8980    1.8890    5.5510 H   0  0  0  0  0  0  0  0  0  0  0  0
    6.9800   -2.8370   -2.1230 H   0  0  0  0  0  0  0  0  0  0  0  0
   -2.0230    1.2810    1.1180 H   0  0  0  0  0  0  0  0  0  0  0  0
   -0.3360    3.4550   -2.0800 H   0  0  0  0  0  0  0  0  0  0  0  0
   -4.0330    0.9340   -0.1840 H   0  0  0  0  0  0  0  0  0  0  0  0
   -2.3530    3.1030   -3.3740 H   0  0  0  0  0  0  0  0  0  0  0  0
   -4.2020    1.8410   -2.4310 H   0  0  0  0  0  0  0  0  0  0  0  0
  1  3  1  0  0  0  0
  1  2  1  0  0  0  0
  1  4  2  0  0  0  0
  2  5  1  0  0  0  0
  3  6  1  0  0  0  0
  4  7  1  0  0  0  0
  4 25  1  0  0  0  0
  5  8  2  0  0  0  0
  5  9  1  0  0  0  0
  6 11  2  0  0  0  0
  6 10  1  0  0  0  0
  7 27  1  0  0  0  0
  7 12  1  0  0  0  0
  7 26  1  0  0  0  0
  8 28  1  0  0  0  0
  8 13  1  0  0  0  0
  9 14  2  0  0  0  0
  9 29  1  0  0  0  0
 10 15  2  0  0  0  0
 10 30  1  0  0  0  0
 11 31  1  0  0  0  0
 11 16  1  0  0  0  0
 12 17  1  0  0  0  0
 13 32  1  0  0  0  0
 13 18  2  0  0  0  0
 14 18  1  0  0  0  0
 14 33  1  0  0  0  0
 15 19  1  0  0  0  0
 15 34  1  0  0  0  0
 16 35  1  0  0  0  0
 16 19  2  0  0  0  0
 17 20  2  0  0  0  0
 17 21  1  0  0  0  0
 18 36  1  0  0  0  0
 19 37  1  0  0  0  0
 20 38  1  0  0  0  0
 20 22  1  0  0  0  0
 21 23  2  0  0  0  0
 21 39  1  0  0  0  0
 22 40  1  0  0  0  0
 22 24  2  0  0  0  0
 23 24  1  0  0  0  0
 23 41  1  0  0  0  0
 24 42  1  0  0  0  0
M  END
