decoy-783
 OpenBabel06062114513D

 15 15  0  0  0  0  0  0  0  0999 V2000
   -0.0040    1.3530    0.0070 C   0  0  0  0  0  0  0  0  0  0  0  0
    1.2050    2.0750    0.0020 C   0  0  0  0  0  0  0  0  0  0  0  0
   -1.1860    2.0220    0.0170 N   0  0  0  0  0  0  0  0  0  0  0  0
   -0.0090    0.0110    0.0010 N   0  0  0  0  0  0  0  0  0  0  0  0
    1.1330    3.4800    0.0080 C   0  0  0  0  0  0  0  0  0  0  0  0
   -1.2350    3.3790    0.0220 C   0  0  0  0  0  0  0  0  0  0  0  0
   -0.0800    4.0920    0.0180 N   0  0  0  0  0  0  0  0  0  0  0  0
    2.2650    4.2210    0.0040 O   0  0  0  0  0  0  0  0  0  0  0  0
   -2.4170    4.0110    0.0320 N   0  0  0  0  0  0  0  0  0  0  0  0
    2.1090    1.5960   -0.0050 H   0  0  0  0  0  0  0  0  0  0  0  0
   -0.8510   -0.4720    0.0040 H   0  0  0  0  0  0  0  0  0  0  0  0
    0.8280   -0.4800   -0.0060 H   0  0  0  0  0  0  0  0  0  0  0  0
    1.9650    5.1540    0.0100 H   0  0  0  0  0  0  0  0  0  0  0  0
   -3.2420    3.4990    0.0350 H   0  0  0  0  0  0  0  0  0  0  0  0
   -2.4500    4.9800    0.0370 H   0  0  0  0  0  0  0  0  0  0  0  0
  1  3  2  0  0  0  0
  1  2  1  0  0  0  0
  1  4  1  0  0  0  0
  2  5  2  0  0  0  0
  2 10  1  0  0  0  0
  3  6  1  0  0  0  0
  4 11  1  0  0  0  0
  4 12  1  0  0  0  0
  5  7  1  0  0  0  0
  5  8  1  0  0  0  0
  6  9  1  0  0  0  0
  6  7  2  0  0  0  0
  8 13  1  0  0  0  0
  9 14  1  0  0  0  0
  9 15  1  0  0  0  0
M  END
