decoy-1035
 OpenBabel06062114513D

 33 34  0  0  0  0  0  0  0  0999 V2000
   -0.0180    1.5360    0.0180 C   0  0  0  0  0  0  0  0  0  0  0  0
   -0.0230    0.0250   -0.2390 C   0  0  0  0  0  0  0  0  0  0  0  0
    1.4350    2.0230   -0.0030 C   0  0  0  0  0  0  0  0  0  0  0  0
   -0.7710    2.4120   -1.0780 C   0  0  0  0  0  0  0  0  0  0  0  0
   -0.7750    1.7270    1.4060 C   0  0  0  0  0  0  0  0  0  0  0  0
    0.8330   -0.8290    0.5140 C   0  0  0  0  0  0  0  0  0  0  0  0
   -0.8690   -0.6130   -1.1880 C   0  0  0  0  0  0  0  0  0  0  0  0
    2.2900    1.6670   -1.0850 C   0  0  0  0  0  0  0  0  0  0  0  0
    2.0040    2.8580    0.9980 C   0  0  0  0  0  0  0  0  0  0  0  0
   -0.3580    2.1540   -2.3650 F   0  0  0  0  0  0  0  0  0  0  0  0
   -2.1380    2.2490   -1.0770 F   0  0  0  0  0  0  0  0  0  0  0  0
   -0.5720    3.7640   -0.8980 F   0  0  0  0  0  0  0  0  0  0  0  0
   -1.0400    3.0410    1.7190 F   0  0  0  0  0  0  0  0  0  0  0  0
   -2.0030    1.1010    1.4250 F   0  0  0  0  0  0  0  0  0  0  0  0
   -0.0890    1.2120    2.4810 F   0  0  0  0  0  0  0  0  0  0  0  0
    0.8560   -2.2220    0.3250 C   0  0  0  0  0  0  0  0  0  0  0  0
   -0.8520   -2.0060   -1.3820 C   0  0  0  0  0  0  0  0  0  0  0  0
    3.6270    2.0970   -1.1570 C   0  0  0  0  0  0  0  0  0  0  0  0
    3.3410    3.2920    0.9330 C   0  0  0  0  0  0  0  0  0  0  0  0
    0.0110   -2.8160   -0.6270 C   0  0  0  0  0  0  0  0  0  0  0  0
    4.1590    2.9120   -0.1430 C   0  0  0  0  0  0  0  0  0  0  0  0
    0.0150   -4.1590   -0.8250 O   0  0  0  0  0  0  0  0  0  0  0  0
    5.4450    3.3390   -0.1920 O   0  0  0  0  0  0  0  0  0  0  0  0
    1.4690   -0.4360    1.2120 H   0  0  0  0  0  0  0  0  0  0  0  0
   -1.5270   -0.0800   -1.7530 H   0  0  0  0  0  0  0  0  0  0  0  0
    1.9460    1.0680   -1.8390 H   0  0  0  0  0  0  0  0  0  0  0  0
    1.4570    3.1780    1.7940 H   0  0  0  0  0  0  0  0  0  0  0  0
    1.4890   -2.8000    0.8830 H   0  0  0  0  0  0  0  0  0  0  0  0
   -1.4750   -2.4300   -2.0740 H   0  0  0  0  0  0  0  0  0  0  0  0
    4.2110    1.8140   -1.9470 H   0  0  0  0  0  0  0  0  0  0  0  0
    3.7180    3.8910    1.6730 H   0  0  0  0  0  0  0  0  0  0  0  0
    0.6710   -4.5200   -0.1920 H   0  0  0  0  0  0  0  0  0  0  0  0
    5.8170    2.9750   -1.0220 H   0  0  0  0  0  0  0  0  0  0  0  0
  1  5  1  0  0  0  0
  1  2  1  0  0  0  0
  1  3  1  0  0  0  0
  1  4  1  0  0  0  0
  2  6  2  0  0  0  0
  2  7  1  0  0  0  0
  3  9  2  0  0  0  0
  3  8  1  0  0  0  0
  4 11  1  0  0  0  0
  4 12  1  0  0  0  0
  4 10  1  0  0  0  0
  5 14  1  0  0  0  0
  5 13  1  0  0  0  0
  5 15  1  0  0  0  0
  6 24  1  0  0  0  0
  6 16  1  0  0  0  0
  7 17  2  0  0  0  0
  7 25  1  0  0  0  0
  8 18  2  0  0  0  0
  8 26  1  0  0  0  0
  9 27  1  0  0  0  0
  9 19  1  0  0  0  0
 16 28  1  0  0  0  0
 16 20  2  0  0  0  0
 17 20  1  0  0  0  0
 17 29  1  0  0  0  0
 18 21  1  0  0  0  0
 18 30  1  0  0  0  0
 19 31  1  0  0  0  0
 19 21  2  0  0  0  0
 20 22  1  0  0  0  0
 21 23  1  0  0  0  0
 22 32  1  0  0  0  0
 23 33  1  0  0  0  0
M  END
