
  ACD/Labs06062115583D

 37 40  0  0  0  0  0  0  0  0  1 V2000
   19.4171  -10.1621   -0.1652 C   0  0  0  0  0  0  0  0  0  0  0  0
   18.0424  -10.2085   -0.4143 C   0  0  0  0  0  0  0  0  0  0  0  0
   19.8321  -11.4855   -0.1836 C   0  0  0  0  0  0  0  0  0  0  0  0
   20.3764   -9.1687    0.0208 C   0  0  0  0  0  0  0  0  0  0  0  0
   17.0909   -9.1637   -0.4782 C   0  0  0  0  0  0  0  0  0  0  0  0
   17.7184  -11.5061   -0.5904 N   0  0  0  0  0  0  0  0  0  0  0  0
   21.1439  -11.8334    0.0418 C   0  0  0  0  0  0  0  0  0  0  0  0
   18.7688  -12.2716   -0.4520 O   0  0  0  0  0  0  0  0  0  0  0  0
   21.6716   -9.5122    0.2457 N   0  0  0  0  0  0  0  0  0  0  0  0
   20.0142   -8.0071   -0.1099 O   0  0  0  0  0  0  0  0  0  0  0  0
   16.0882   -9.1782   -1.4773 C   0  0  0  0  0  0  0  0  0  0  0  0
   17.0782   -8.1187    0.4763 C   0  0  0  0  0  0  0  0  0  0  0  0
   22.0502  -10.8534    0.2700 C   0  0  0  0  0  0  0  0  0  0  0  0
   22.6791   -8.4794    0.4440 C   0  0  0  0  0  0  0  0  0  0  0  0
   15.1211   -8.1571   -1.5422 C   0  0  0  0  0  0  0  0  0  0  0  0
   16.1113   -7.0988    0.4133 C   0  0  0  0  0  0  0  0  0  0  0  0
   23.3594  -11.2642    0.5190 C   0  0  0  0  0  0  0  0  0  0  0  0
   15.1349   -7.1146   -0.5981 C   0  0  0  0  0  0  0  0  0  0  0  0
   23.7927  -11.5084    1.8424 C   0  0  0  0  0  0  0  0  0  0  0  0
   24.2693  -11.4387   -0.5493 C   0  0  0  0  0  0  0  0  0  0  0  0
   25.1149  -11.9190    2.0923 C   0  0  0  0  0  0  0  0  0  0  0  0
   25.5916  -11.8496   -0.2954 C   0  0  0  0  0  0  0  0  0  0  0  0
   26.0144  -12.0896    1.0244 C   0  0  0  0  0  0  0  0  0  0  0  0
   21.3893  -12.7980    0.0441 H   0  0  0  0  0  0  0  0  0  0  0  0
   16.0605   -9.9263   -2.1763 H   0  0  0  0  0  0  0  0  0  0  0  0
   17.7553   -8.1056    1.2421 H   0  0  0  0  0  0  0  0  0  0  0  0
   22.2951   -7.4585    0.4163 H   0  0  0  0  0  0  0  0  0  0  0  0
   23.1561   -8.6090    1.4169 H   0  0  0  0  0  0  0  0  0  0  0  0
   23.4424   -8.5532   -0.3335 H   0  0  0  0  0  0  0  0  0  0  0  0
   14.4080   -8.1731   -2.2739 H   0  0  0  0  0  0  0  0  0  0  0  0
   16.1117   -6.3494    1.1095 H   0  0  0  0  0  0  0  0  0  0  0  0
   14.4316   -6.3742   -0.6431 H   0  0  0  0  0  0  0  0  0  0  0  0
   23.1502  -11.3885    2.6304 H   0  0  0  0  0  0  0  0  0  0  0  0
   23.9768  -11.2671   -1.5154 H   0  0  0  0  0  0  0  0  0  0  0  0
   25.4238  -12.0934    3.0521 H   0  0  0  0  0  0  0  0  0  0  0  0
   26.2465  -11.9733   -1.0717 H   0  0  0  0  0  0  0  0  0  0  0  0
   26.9752  -12.3880    1.2069 H   0  0  0  0  0  0  0  0  0  0  0  0
  1  2  1  0  0  0  0
  1  3  2  0  0  0  0
  1  4  1  0  0  0  0
  2  5  1  0  0  0  0
  2  6  2  0  0  0  0
  3  7  1  0  0  0  0
  3  8  1  0  0  0  0
  4  9  1  0  0  0  0
  4 10  2  0  0  0  0
  5 12  2  0  0  0  0
  5 11  1  0  0  0  0
  6  8  1  0  0  0  0
  7 24  1  0  0  0  0
  7 13  2  0  0  0  0
  9 14  1  0  0  0  0
  9 13  1  0  0  0  0
 11 15  2  0  0  0  0
 11 25  1  0  0  0  0
 12 26  1  0  0  0  0
 12 16  1  0  0  0  0
 13 17  1  0  0  0  0
 14 28  1  0  0  0  0
 14 27  1  0  0  0  0
 14 29  1  0  0  0  0
 15 18  1  0  0  0  0
 15 30  1  0  0  0  0
 16 31  1  0  0  0  0
 16 18  2  0  0  0  0
 17 19  2  0  0  0  0
 17 20  1  0  0  0  0
 18 32  1  0  0  0  0
 19 21  1  0  0  0  0
 19 33  1  0  0  0  0
 20 22  2  0  0  0  0
 20 34  1  0  0  0  0
 21 35  1  0  0  0  0
 21 23  2  0  0  0  0
 22 23  1  0  0  0  0
 22 36  1  0  0  0  0
 23 37  1  0  0  0  0
M  END
