decoy-779
 OpenBabel06062114513D

 42 42  0  0  0  0  0  0  0  0999 V2000
   -0.2830    1.1310    0.3710 C   0  0  0  0  0  0  0  0  0  0  0  0
    0.0600   -0.4040    0.3120 C   0  0  0  0  0  0  0  0  0  0  0  0
    1.0810    1.8240    0.5850 C   0  0  0  0  0  0  0  0  0  0  0  0
   -0.9090    1.6610   -0.8150 N   0  0  0  0  0  0  0  0  0  0  0  0
    1.5590   -0.4730    0.3130 C   0  0  0  0  0  0  0  0  0  0  0  0
   -0.4140   -1.1200    1.6170 C   0  0  0  0  0  0  0  0  0  0  0  0
   -0.6060   -1.1430   -0.9000 C   0  0  0  0  0  0  0  0  0  0  0  0
    2.1450    0.8590   -0.0050 C   0  0  0  0  0  0  0  0  0  0  0  0
   -2.1020    2.2300   -0.9200 C   0  0  0  0  0  0  0  0  0  0  0  0
    2.0990   -1.5050   -0.3980 O   0  0  0  0  0  0  0  0  0  0  0  0
    2.3710    1.1050   -1.5340 C   0  0  0  0  0  0  0  0  0  0  0  0
    3.5080    1.0190    0.7350 C   0  0  0  0  0  0  0  0  0  0  0  0
   -2.5260    2.6800   -2.2330 C   0  0  0  0  0  0  0  0  0  0  0  0
   -2.8330    2.3640    0.0550 O   0  0  0  0  0  0  0  0  0  0  0  0
   -3.8270    3.2780   -2.2600 N   0  0  0  0  0  0  0  0  0  0  0  0
   -4.4300    3.7620   -3.3360 C   0  0  0  0  0  0  0  0  0  0  0  0
   -5.7500    4.3350   -3.1880 C   0  0  0  0  0  0  0  0  0  0  0  0
   -3.8890    3.7310   -4.4340 O   0  0  0  0  0  0  0  0  0  0  0  0
   -6.5900    5.0700   -4.9970 I   0  0  0  0  0  0  0  0  0  0  0  0
   -0.9120    1.3530    1.2400 H   0  0  0  0  0  0  0  0  0  0  0  0
    1.1250    2.8190    0.1320 H   0  0  0  0  0  0  0  0  0  0  0  0
    1.2380    1.9480    1.6620 H   0  0  0  0  0  0  0  0  0  0  0  0
   -0.4020    1.5840   -1.6380 H   0  0  0  0  0  0  0  0  0  0  0  0
   -0.1030   -2.1670    1.6200 H   0  0  0  0  0  0  0  0  0  0  0  0
    0.0140   -0.6390    2.5000 H   0  0  0  0  0  0  0  0  0  0  0  0
   -1.5030   -1.0840    1.7040 H   0  0  0  0  0  0  0  0  0  0  0  0
   -0.3920   -2.2130   -0.8740 H   0  0  0  0  0  0  0  0  0  0  0  0
   -1.6900   -1.0150   -0.8770 H   0  0  0  0  0  0  0  0  0  0  0  0
   -0.2340   -0.7530   -1.8480 H   0  0  0  0  0  0  0  0  0  0  0  0
    3.0550   -1.4930   -0.1830 H   0  0  0  0  0  0  0  0  0  0  0  0
    3.1280    0.4230   -1.9260 H   0  0  0  0  0  0  0  0  0  0  0  0
    1.4580    0.9490   -2.1050 H   0  0  0  0  0  0  0  0  0  0  0  0
    2.7120    2.1270   -1.7110 H   0  0  0  0  0  0  0  0  0  0  0  0
    4.2470    0.3210    0.3370 H   0  0  0  0  0  0  0  0  0  0  0  0
    3.8920    2.0350    0.6160 H   0  0  0  0  0  0  0  0  0  0  0  0
    3.3980    0.8170    1.8030 H   0  0  0  0  0  0  0  0  0  0  0  0
   -1.7980    3.4110   -2.5970 H   0  0  0  0  0  0  0  0  0  0  0  0
   -2.5220    1.8200   -2.9090 H   0  0  0  0  0  0  0  0  0  0  0  0
   -4.3110    3.3340   -1.4200 H   0  0  0  0  0  0  0  0  0  0  0  0
   -6.4280    3.5770   -2.7900 H   0  0  0  0  0  0  0  0  0  0  0  0
   -5.7050    5.1650   -2.4800 H   0  0  0  0  0  0  0  0  0  0  0  0
    1.8240   -0.6530    1.2840 H   0  0  0  0  0  0  0  0  0  0  0  0
  1  3  1  0  0  0  0
  1 20  1  0  0  0  0
  1  2  1  0  0  0  0
  1  4  1  0  0  0  0
  2  5  1  0  0  0  0
  2  6  1  0  0  0  0
  2  7  1  0  0  0  0
  3 22  1  0  0  0  0
  3  8  1  0  0  0  0
  3 21  1  0  0  0  0
  4  9  1  0  0  0  0
  4 23  1  0  0  0  0
  5 42  1  0  0  0  0
  5  8  1  0  0  0  0
  5 10  1  0  0  0  0
  6 24  1  0  0  0  0
  6 26  1  0  0  0  0
  6 25  1  0  0  0  0
  7 28  1  0  0  0  0
  7 27  1  0  0  0  0
  7 29  1  0  0  0  0
  8 12  1  0  0  0  0
  8 11  1  0  0  0  0
  9 14  2  0  0  0  0
  9 13  1  0  0  0  0
 10 30  1  0  0  0  0
 11 31  1  0  0  0  0
 11 32  1  0  0  0  0
 11 33  1  0  0  0  0
 12 36  1  0  0  0  0
 12 34  1  0  0  0  0
 12 35  1  0  0  0  0
 13 15  1  0  0  0  0
 13 37  1  0  0  0  0
 13 38  1  0  0  0  0
 15 39  1  0  0  0  0
 15 16  1  0  0  0  0
 16 17  1  0  0  0  0
 16 18  2  0  0  0  0
 17 40  1  0  0  0  0
 17 41  1  0  0  0  0
 17 19  1  0  0  0  0
M  END
