decoy-903
 OpenBabel06062114513D

 79 82  0  0  0  0  0  0  0  0999 V2000
   -0.7470    1.8700    0.2190 C   0  0  0  0  0  0  0  0  0  0  0  0
   -0.6080    0.3490    0.5700 C   0  0  0  0  0  0  0  0  0  0  0  0
    0.6570    2.5820    0.3590 C   0  0  0  0  0  0  0  0  0  0  0  0
   -1.3780    2.1080   -1.1930 C   0  0  0  0  0  0  0  0  0  0  0  0
   -0.0640    0.0470    2.0110 C   0  0  0  0  0  0  0  0  0  0  0  0
   -1.8490   -0.5540    0.4390 C   0  0  0  0  0  0  0  0  0  0  0  0
    0.6100    4.1340   -0.0060 C   0  0  0  0  0  0  0  0  0  0  0  0
    1.3380    2.2360    1.7310 C   0  0  0  0  0  0  0  0  0  0  0  0
   -1.4140    3.6110   -1.5740 C   0  0  0  0  0  0  0  0  0  0  0  0
   -0.6820    1.3950   -2.2190 O   0  0  0  0  0  0  0  0  0  0  0  0
   -0.1340   -1.5350    2.0090 C   0  0  0  0  0  0  0  0  0  0  0  0
    1.3620    0.7160    2.0850 C   0  0  0  0  0  0  0  0  0  0  0  0
   -0.9720    0.6150    3.1710 C   0  0  0  0  0  0  0  0  0  0  0  0
   -1.4710   -1.8190    1.2420 C   0  0  0  0  0  0  0  0  0  0  0  0
   -0.0020    4.2580   -1.4620 C   0  0  0  0  0  0  0  0  0  0  0  0
    2.0660    4.7400   -0.0740 C   0  0  0  0  0  0  0  0  0  0  0  0
   -0.2100    4.9460    1.0670 C   0  0  0  0  0  0  0  0  0  0  0  0
    0.0030   -2.3710    3.3480 C   0  0  0  0  0  0  0  0  0  0  0  0
    2.3140    0.0790    1.2280 O   0  0  0  0  0  0  0  0  0  0  0  0
    0.0250    5.7060   -2.0440 C   0  0  0  0  0  0  0  0  0  0  0  0
    2.1510    6.1750   -0.6680 C   0  0  0  0  0  0  0  0  0  0  0  0
   -0.0780   -3.9200    3.0830 C   0  0  0  0  0  0  0  0  0  0  0  0
    1.3110   -2.0350    4.1260 C   0  0  0  0  0  0  0  0  0  0  0  0
    1.4630    6.2930   -2.0520 C   0  0  0  0  0  0  0  0  0  0  0  0
   -0.3300   -4.8150    4.3360 C   0  0  0  0  0  0  0  0  0  0  0  0
    2.2610    5.6350   -3.0370 O   0  0  0  0  0  0  0  0  0  0  0  0
   -0.5560   -6.2300    4.0770 C   0  0  0  0  0  0  0  0  0  0  0  0
   -0.8040   -7.0240    5.1100 N   0  0  0  0  0  0  0  0  0  0  0  0
   -0.5090   -6.6830    2.9390 O   0  0  0  0  0  0  0  0  0  0  0  0
   -1.0480   -8.4300    5.0390 C   0  0  0  0  0  0  0  0  0  0  0  0
   -1.2900   -9.0080    6.4500 C   0  0  0  0  0  0  0  0  0  0  0  0
   -1.6170  -10.7840    6.4020 S   0  0  0  0  0  0  0  0  0  0  0  0
   -3.0070  -11.0980    5.4910 O   0  0  0  0  0  0  0  0  0  0  0  0
   -0.3040  -11.6040    5.7250 O   0  0  0  0  0  0  0  0  0  0  0  0
   -1.8610  -11.3490    7.9760 O   0  0  0  0  0  0  0  0  0  0  0  0
   -1.4440    2.3040    0.9360 H   0  0  0  0  0  0  0  0  0  0  0  0
    0.1130   -0.0510   -0.1560 H   0  0  0  0  0  0  0  0  0  0  0  0
    1.3020    2.1120   -0.3920 H   0  0  0  0  0  0  0  0  0  0  0  0
   -2.4100    1.7440   -1.1920 H   0  0  0  0  0  0  0  0  0  0  0  0
   -2.7290   -0.0650    0.8680 H   0  0  0  0  0  0  0  0  0  0  0  0
   -2.0610   -0.7970   -0.6060 H   0  0  0  0  0  0  0  0  0  0  0  0
    2.3730    2.5840    1.7220 H   0  0  0  0  0  0  0  0  0  0  0  0
    0.8380    2.7690    2.5380 H   0  0  0  0  0  0  0  0  0  0  0  0
   -1.7800    3.6990   -2.6010 H   0  0  0  0  0  0  0  0  0  0  0  0
   -2.1250    4.1380   -0.9340 H   0  0  0  0  0  0  0  0  0  0  0  0
   -0.8080    0.4470   -2.0100 H   0  0  0  0  0  0  0  0  0  0  0  0
    0.6710   -1.8970    1.3600 H   0  0  0  0  0  0  0  0  0  0  0  0
    1.7650    0.6360    3.0940 H   0  0  0  0  0  0  0  0  0  0  0  0
   -1.9580    0.1520    3.1820 H   0  0  0  0  0  0  0  0  0  0  0  0
   -0.5160    0.4320    4.1430 H   0  0  0  0  0  0  0  0  0  0  0  0
   -1.1260    1.6890    3.0940 H   0  0  0  0  0  0  0  0  0  0  0  0
   -2.2830   -2.0590    1.9340 H   0  0  0  0  0  0  0  0  0  0  0  0
   -1.3460   -2.6650    0.5580 H   0  0  0  0  0  0  0  0  0  0  0  0
    0.6390    3.6770   -2.1360 H   0  0  0  0  0  0  0  0  0  0  0  0
    2.5100    4.7760    0.9240 H   0  0  0  0  0  0  0  0  0  0  0  0
    2.7030    4.0900   -0.6810 H   0  0  0  0  0  0  0  0  0  0  0  0
   -1.2030    4.5320    1.2290 H   0  0  0  0  0  0  0  0  0  0  0  0
    0.3030    4.9570    2.0280 H   0  0  0  0  0  0  0  0  0  0  0  0
   -0.3480    5.9850    0.7760 H   0  0  0  0  0  0  0  0  0  0  0  0
   -0.8380   -2.1070    3.9950 H   0  0  0  0  0  0  0  0  0  0  0  0
    2.4280   -0.8230    1.5910 H   0  0  0  0  0  0  0  0  0  0  0  0
   -0.3480    5.6960   -3.0720 H   0  0  0  0  0  0  0  0  0  0  0  0
   -0.6350    6.3610   -1.4720 H   0  0  0  0  0  0  0  0  0  0  0  0
    1.6930    6.8870    0.0220 H   0  0  0  0  0  0  0  0  0  0  0  0
    3.2020    6.4590   -0.7660 H   0  0  0  0  0  0  0  0  0  0  0  0
   -0.9020   -4.1230    2.3990 H   0  0  0  0  0  0  0  0  0  0  0  0
    0.8410   -4.2470    2.5880 H   0  0  0  0  0  0  0  0  0  0  0  0
    1.2760   -1.0270    4.5280 H   0  0  0  0  0  0  0  0  0  0  0  0
    1.4530   -2.6910    4.9830 H   0  0  0  0  0  0  0  0  0  0  0  0
    2.1820   -2.1300    3.4750 H   0  0  0  0  0  0  0  0  0  0  0  0
    1.4120    7.3490   -2.3310 H   0  0  0  0  0  0  0  0  0  0  0  0
    0.5260   -4.7480    5.0080 H   0  0  0  0  0  0  0  0  0  0  0  0
   -1.2050   -4.4260    4.8630 H   0  0  0  0  0  0  0  0  0  0  0  0
    1.8030    5.8000   -3.8890 H   0  0  0  0  0  0  0  0  0  0  0  0
   -0.8230   -6.6140    5.9890 H   0  0  0  0  0  0  0  0  0  0  0  0
   -1.9270   -8.6130    4.4160 H   0  0  0  0  0  0  0  0  0  0  0  0
   -0.1840   -8.9260    4.5880 H   0  0  0  0  0  0  0  0  0  0  0  0
   -0.4110   -8.8380    7.0760 H   0  0  0  0  0  0  0  0  0  0  0  0
   -2.1480   -8.5130    6.9120 H   0  0  0  0  0  0  0  0  0  0  0  0
  1  4  1  0  0  0  0
  1  3  1  0  0  0  0
  1 36  1  0  0  0  0
  1  2  1  0  0  0  0
  2  5  1  0  0  0  0
  2  6  1  0  0  0  0
  2 37  1  0  0  0  0
  3  7  1  0  0  0  0
  3  8  1  0  0  0  0
  3 38  1  0  0  0  0
  4 39  1  0  0  0  0
  4  9  1  0  0  0  0
  4 10  1  0  0  0  0
  5 13  1  0  0  0  0
  5 11  1  0  0  0  0
  5 12  1  0  0  0  0
  6 40  1  0  0  0  0
  6 14  1  0  0  0  0
  6 41  1  0  0  0  0
  7 15  1  0  0  0  0
  7 17  1  0  0  0  0
  7 16  1  0  0  0  0
  8 12  1  0  0  0  0
  8 43  1  0  0  0  0
  8 42  1  0  0  0  0
  9 15  1  0  0  0  0
  9 45  1  0  0  0  0
  9 44  1  0  0  0  0
 10 46  1  0  0  0  0
 11 18  1  0  0  0  0
 11 14  1  0  0  0  0
 11 47  1  0  0  0  0
 12 48  1  0  0  0  0
 12 19  1  0  0  0  0
 13 49  1  0  0  0  0
 13 50  1  0  0  0  0
 13 51  1  0  0  0  0
 14 52  1  0  0  0  0
 14 53  1  0  0  0  0
 15 54  1  0  0  0  0
 15 20  1  0  0  0  0
 16 55  1  0  0  0  0
 16 21  1  0  0  0  0
 16 56  1  0  0  0  0
 17 57  1  0  0  0  0
 17 58  1  0  0  0  0
 17 59  1  0  0  0  0
 18 60  1  0  0  0  0
 18 23  1  0  0  0  0
 18 22  1  0  0  0  0
 19 61  1  0  0  0  0
 20 63  1  0  0  0  0
 20 24  1  0  0  0  0
 20 62  1  0  0  0  0
 21 64  1  0  0  0  0
 21 24  1  0  0  0  0
 21 65  1  0  0  0  0
 22 25  1  0  0  0  0
 22 66  1  0  0  0  0
 22 67  1  0  0  0  0
 23 68  1  0  0  0  0
 23 69  1  0  0  0  0
 23 70  1  0  0  0  0
 24 71  1  0  0  0  0
 24 26  1  0  0  0  0
 25 73  1  0  0  0  0
 25 72  1  0  0  0  0
 25 27  1  0  0  0  0
 26 74  1  0  0  0  0
 27 28  1  0  0  0  0
 27 29  2  0  0  0  0
 28 75  1  0  0  0  0
 28 30  1  0  0  0  0
 30 31  1  0  0  0  0
 30 76  1  0  0  0  0
 30 77  1  0  0  0  0
 31 79  1  0  0  0  0
 31 78  1  0  0  0  0
 31 32  1  0  0  0  0
 32 35  2  0  0  0  0
 32 33  2  0  0  0  0
 32 34  1  0  0  0  0
M  END
