decoy-383
 OpenBabel06062114513D

 54 59  0  0  0  0  0  0  0  0999 V2000
   -0.0100    1.5500    0.0660 C   0  0  0  0  0  0  0  0  0  0  0  0
    0.0140   -0.0420    0.0290 C   0  0  0  0  0  0  0  0  0  0  0  0
    1.4220    2.0840    0.0110 C   0  0  0  0  0  0  0  0  0  0  0  0
   -0.7520    1.8790    1.4230 C   0  0  0  0  0  0  0  0  0  0  0  0
   -0.7300    2.1550   -1.1940 C   0  0  0  0  0  0  0  0  0  0  0  0
    0.7250   -0.5770    1.2730 C   0  0  0  0  0  0  0  0  0  0  0  0
    0.7720   -0.3800   -1.3130 C   0  0  0  0  0  0  0  0  0  0  0  0
   -1.4410   -0.6390    0.0560 C   0  0  0  0  0  0  0  0  0  0  0  0
    2.4270    1.3060   -0.6380 C   0  0  0  0  0  0  0  0  0  0  0  0
    1.7950    3.3560    0.5130 C   0  0  0  0  0  0  0  0  0  0  0  0
    0.0570    1.3940    2.5060 N   0  0  0  0  0  0  0  0  0  0  0  0
   -2.1310    1.2900    1.6250 *   0  0  0  0  0  0  0  0  0  0  0  0
   -0.1470    1.6340   -2.5360 C   0  0  0  0  0  0  0  0  0  0  0  0
    0.7220    0.2110    2.4620 C   0  0  0  0  0  0  0  0  0  0  0  0
    1.3380   -1.8550    1.3310 C   0  0  0  0  0  0  0  0  0  0  0  0
    2.1160    0.1260   -1.2310 N   0  0  0  0  0  0  0  0  0  0  0  0
    0.0580    0.1500   -2.5320 *   0  0  0  0  0  0  0  0  0  0  0  0
   -2.2590   -0.1700    1.2920 C   0  0  0  0  0  0  0  0  0  0  0  0
    3.7620    1.7530   -0.6940 C   0  0  0  0  0  0  0  0  0  0  0  0
    3.1260    3.8040    0.4460 C   0  0  0  0  0  0  0  0  0  0  0  0
   -3.2890    2.1070    1.1480 C   0  0  0  0  0  0  0  0  0  0  0  0
    1.3900   -0.2290    3.6220 C   0  0  0  0  0  0  0  0  0  0  0  0
    1.9920   -2.2970    2.4950 C   0  0  0  0  0  0  0  0  0  0  0  0
    0.6480   -0.3300   -3.8170 C   0  0  0  0  0  0  0  0  0  0  0  0
    4.1120    2.9990   -0.1470 C   0  0  0  0  0  0  0  0  0  0  0  0
    2.0300   -1.4790    3.6350 C   0  0  0  0  0  0  0  0  0  0  0  0
   -0.8200    2.9590    1.5580 H   0  0  0  0  0  0  0  0  0  0  0  0
   -1.7830    1.9030   -1.1970 H   0  0  0  0  0  0  0  0  0  0  0  0
   -0.6730    3.2480   -1.1760 H   0  0  0  0  0  0  0  0  0  0  0  0
    0.8300   -1.4640   -1.4230 H   0  0  0  0  0  0  0  0  0  0  0  0
   -1.9980   -0.3590   -0.8380 H   0  0  0  0  0  0  0  0  0  0  0  0
   -1.3940   -1.7320    0.0580 H   0  0  0  0  0  0  0  0  0  0  0  0
    1.1030    3.9780    0.9320 H   0  0  0  0  0  0  0  0  0  0  0  0
    0.0880    1.9130    3.3260 H   0  0  0  0  0  0  0  0  0  0  0  0
   -0.8440    1.9000   -3.3360 H   0  0  0  0  0  0  0  0  0  0  0  0
    0.7930    2.1510   -2.7460 H   0  0  0  0  0  0  0  0  0  0  0  0
    1.3160   -2.4840    0.5290 H   0  0  0  0  0  0  0  0  0  0  0  0
    2.8260   -0.3860   -1.6500 H   0  0  0  0  0  0  0  0  0  0  0  0
   -3.3050   -0.4600    1.1520 H   0  0  0  0  0  0  0  0  0  0  0  0
   -1.9170   -0.7320    2.1640 H   0  0  0  0  0  0  0  0  0  0  0  0
    4.4810    1.1850   -1.1480 H   0  0  0  0  0  0  0  0  0  0  0  0
    3.3780    4.7210    0.8240 H   0  0  0  0  0  0  0  0  0  0  0  0
   -4.1570    1.8710    1.7660 H   0  0  0  0  0  0  0  0  0  0  0  0
   -3.1020    3.1770    1.2520 H   0  0  0  0  0  0  0  0  0  0  0  0
   -3.5580    1.8960    0.1150 H   0  0  0  0  0  0  0  0  0  0  0  0
    1.3970    0.3480    4.4670 H   0  0  0  0  0  0  0  0  0  0  0  0
    2.4390   -3.2160    2.5120 H   0  0  0  0  0  0  0  0  0  0  0  0
    0.6900   -1.4210   -3.8330 H   0  0  0  0  0  0  0  0  0  0  0  0
    0.0280   -0.0160   -4.6600 H   0  0  0  0  0  0  0  0  0  0  0  0
    1.6580    0.0600   -3.9630 H   0  0  0  0  0  0  0  0  0  0  0  0
    5.0790    3.3260   -0.1960 H   0  0  0  0  0  0  0  0  0  0  0  0
    2.5060   -1.8020    4.4810 H   0  0  0  0  0  0  0  0  0  0  0  0
   -2.2510    1.3200    2.6410 H   0  0  0  0  0  0  0  0  0  0  0  0
   -0.8780   -0.2580   -2.5040 H   0  0  0  0  0  0  0  0  0  0  0  0
  1  2  1  0  0  0  0
  1  3  1  0  0  0  0
  1  4  1  0  0  0  0
  1  5  1  0  0  0  0
  2  7  1  0  0  0  0
  2  8  1  0  0  0  0
  2  6  1  0  0  0  0
  3 10  2  0  0  0  0
  3  9  1  0  0  0  0
  4 27  1  0  0  0  0
  4 12  1  0  0  0  0
  4 11  1  0  0  0  0
  5 29  1  0  0  0  0
  5 13  1  0  0  0  0
  5 28  1  0  0  0  0
  6 15  2  0  0  0  0
  6 14  1  0  0  0  0
  7 30  1  0  0  0  0
  7 16  1  0  0  0  0
  7 17  1  0  0  0  0
  8 32  1  0  0  0  0
  8 18  1  0  0  0  0
  8 31  1  0  0  0  0
  9 16  1  0  0  0  0
  9 19  2  0  0  0  0
 10 33  1  0  0  0  0
 10 20  1  0  0  0  0
 11 34  1  0  0  0  0
 11 14  1  0  0  0  0
 12 53  1  0  0  0  0
 12 18  1  0  0  0  0
 12 21  1  0  0  0  0
 13 17  1  0  0  0  0
 13 35  1  0  0  0  0
 13 36  1  0  0  0  0
 14 22  2  0  0  0  0
 15 23  1  0  0  0  0
 15 37  1  0  0  0  0
 16 38  1  0  0  0  0
 17 54  1  0  0  0  0
 17 24  1  0  0  0  0
 18 40  1  0  0  0  0
 18 39  1  0  0  0  0
 19 25  1  0  0  0  0
 19 41  1  0  0  0  0
 20 42  1  0  0  0  0
 20 25  2  0  0  0  0
 21 44  1  0  0  0  0
 21 43  1  0  0  0  0
 21 45  1  0  0  0  0
 22 26  1  0  0  0  0
 22 46  1  0  0  0  0
 23 47  1  0  0  0  0
 23 26  2  0  0  0  0
 24 48  1  0  0  0  0
 24 49  1  0  0  0  0
 24 50  1  0  0  0  0
 25 51  1  0  0  0  0
 26 52  1  0  0  0  0
M  END
