decoy-184
 OpenBabel06062114503D

 94 95  0  0  0  0  0  0  0  0999 V2000
   -0.3220    2.4070    2.2310 C   0  0  0  0  0  0  0  0  0  0  0  0
    0.7360    3.0910    1.4210 C   0  0  0  0  0  0  0  0  0  0  0  0
   -0.0950    1.2240    2.8780 C   0  0  0  0  0  0  0  0  0  0  0  0
   -1.5720    2.9620    2.2250 C   0  0  0  0  0  0  0  0  0  0  0  0
    2.1520    2.6770    1.9600 C   0  0  0  0  0  0  0  0  0  0  0  0
    0.5890    2.6810   -0.0830 C   0  0  0  0  0  0  0  0  0  0  0  0
    0.6770    4.6590    1.5060 C   0  0  0  0  0  0  0  0  0  0  0  0
    1.0900    0.5400    2.6790 C   0  0  0  0  0  0  0  0  0  0  0  0
   -1.0590    0.6080    3.8100 C   0  0  0  0  0  0  0  0  0  0  0  0
   -2.5590    2.5300    1.4210 C   0  0  0  0  0  0  0  0  0  0  0  0
    2.2900    1.1460    2.1270 C   0  0  0  0  0  0  0  0  0  0  0  0
    1.1470   -0.6730    2.8540 O   0  0  0  0  0  0  0  0  0  0  0  0
   -3.8040    3.0790    1.4290 C   0  0  0  0  0  0  0  0  0  0  0  0
   -4.8160    2.3780    1.9930 C   0  0  0  0  0  0  0  0  0  0  0  0
   -3.9840    4.3820    0.7880 C   0  0  0  0  0  0  0  0  0  0  0  0
   -6.1180    2.7770    2.0840 C   0  0  0  0  0  0  0  0  0  0  0  0
   -7.1270    1.9380    2.3840 C   0  0  0  0  0  0  0  0  0  0  0  0
   -8.4260    2.3450    2.4690 C   0  0  0  0  0  0  0  0  0  0  0  0
   -9.2870    1.9660    1.4950 C   0  0  0  0  0  0  0  0  0  0  0  0
   -8.8260    3.1330    3.6350 C   0  0  0  0  0  0  0  0  0  0  0  0
  -10.6150    2.2780    1.4280 C   0  0  0  0  0  0  0  0  0  0  0  0
  -11.4920    1.6230    0.6430 C   0  0  0  0  0  0  0  0  0  0  0  0
  -12.8200    1.9350    0.5770 C   0  0  0  0  0  0  0  0  0  0  0  0
  -13.6720    1.5910   -0.4170 C   0  0  0  0  0  0  0  0  0  0  0  0
  -14.9730    1.9900   -0.3270 C   0  0  0  0  0  0  0  0  0  0  0  0
  -13.2570    0.8510   -1.6100 C   0  0  0  0  0  0  0  0  0  0  0  0
  -15.9850    1.1330   -0.0990 C   0  0  0  0  0  0  0  0  0  0  0  0
  -17.2880    1.5260    0.0090 C   0  0  0  0  0  0  0  0  0  0  0  0
  -18.3740    0.7240   -0.0960 C   0  0  0  0  0  0  0  0  0  0  0  0
  -19.6090    1.2840    0.0350 C   0  0  0  0  0  0  0  0  0  0  0  0
  -18.2900   -0.7080   -0.3880 C   0  0  0  0  0  0  0  0  0  0  0  0
  -20.3900    1.0750    1.1100 C   0  0  0  0  0  0  0  0  0  0  0  0
  -21.6110    1.6720    1.2610 C   0  0  0  0  0  0  0  0  0  0  0  0
  -22.8160    0.8660    0.8870 C   0  0  0  0  0  0  0  0  0  0  0  0
  -21.7170    2.8830    1.8900 C   0  0  0  0  0  0  0  0  0  0  0  0
  -23.9870    1.8460    0.5260 C   0  0  0  0  0  0  0  0  0  0  0  0
  -22.6160   -0.0550   -0.3710 C   0  0  0  0  0  0  0  0  0  0  0  0
  -23.2150   -0.0510    2.0920 C   0  0  0  0  0  0  0  0  0  0  0  0
  -22.9650    3.4130    2.1820 C   0  0  0  0  0  0  0  0  0  0  0  0
  -20.5550    3.7040    2.2870 C   0  0  0  0  0  0  0  0  0  0  0  0
  -24.2100    2.9190    1.6170 C   0  0  0  0  0  0  0  0  0  0  0  0
  -23.0950    4.2860    3.0330 O   0  0  0  0  0  0  0  0  0  0  0  0
   -1.7420    3.7150    2.8540 H   0  0  0  0  0  0  0  0  0  0  0  0
    2.9470    3.0400    1.3010 H   0  0  0  0  0  0  0  0  0  0  0  0
    2.3140    3.1320    2.9440 H   0  0  0  0  0  0  0  0  0  0  0  0
   -0.3470    3.0570   -0.5000 H   0  0  0  0  0  0  0  0  0  0  0  0
    1.4080    3.0890   -0.6790 H   0  0  0  0  0  0  0  0  0  0  0  0
    0.5930    1.5950   -0.2000 H   0  0  0  0  0  0  0  0  0  0  0  0
    0.7100    4.9910    2.5460 H   0  0  0  0  0  0  0  0  0  0  0  0
    1.5180    5.1120    0.9760 H   0  0  0  0  0  0  0  0  0  0  0  0
   -0.2400    5.0470    1.0570 H   0  0  0  0  0  0  0  0  0  0  0  0
   -1.9110    1.2410    4.0600 H   0  0  0  0  0  0  0  0  0  0  0  0
   -1.4500   -0.3160    3.3790 H   0  0  0  0  0  0  0  0  0  0  0  0
   -0.5630    0.3710    4.7540 H   0  0  0  0  0  0  0  0  0  0  0  0
   -2.3960    1.7620    0.8080 H   0  0  0  0  0  0  0  0  0  0  0  0
    2.5020    0.6940    1.1530 H   0  0  0  0  0  0  0  0  0  0  0  0
    3.1400    0.9380    2.7840 H   0  0  0  0  0  0  0  0  0  0  0  0
   -4.5970    1.4870    2.3890 H   0  0  0  0  0  0  0  0  0  0  0  0
   -3.0620    4.7680    0.3430 H   0  0  0  0  0  0  0  0  0  0  0  0
   -4.7260    4.3050   -0.0100 H   0  0  0  0  0  0  0  0  0  0  0  0
   -4.3270    5.1130    1.5230 H   0  0  0  0  0  0  0  0  0  0  0  0
   -6.3390    3.7350    1.9290 H   0  0  0  0  0  0  0  0  0  0  0  0
   -6.9420    0.9700    2.5270 H   0  0  0  0  0  0  0  0  0  0  0  0
   -8.9250    1.4100    0.7490 H   0  0  0  0  0  0  0  0  0  0  0  0
   -8.0060    3.2930    4.3410 H   0  0  0  0  0  0  0  0  0  0  0  0
   -9.1830    4.1140    3.3150 H   0  0  0  0  0  0  0  0  0  0  0  0
   -9.6280    2.6220    4.1730 H   0  0  0  0  0  0  0  0  0  0  0  0
  -10.9520    3.0390    1.9740 H   0  0  0  0  0  0  0  0  0  0  0  0
  -11.1570    0.8620    0.0960 H   0  0  0  0  0  0  0  0  0  0  0  0
  -13.1880    2.4620    1.3420 H   0  0  0  0  0  0  0  0  0  0  0  0
  -15.1590    2.9640   -0.4210 H   0  0  0  0  0  0  0  0  0  0  0  0
  -12.4510    1.3850   -2.1180 H   0  0  0  0  0  0  0  0  0  0  0  0
  -12.9020   -0.1420   -1.3260 H   0  0  0  0  0  0  0  0  0  0  0  0
  -14.0690    0.7190   -2.3310 H   0  0  0  0  0  0  0  0  0  0  0  0
  -15.7650    0.1680    0.0070 H   0  0  0  0  0  0  0  0  0  0  0  0
  -17.4430    2.4960    0.1870 H   0  0  0  0  0  0  0  0  0  0  0  0
  -19.9140    1.9040   -0.6820 H   0  0  0  0  0  0  0  0  0  0  0  0
  -17.7480   -0.8650   -1.3230 H   0  0  0  0  0  0  0  0  0  0  0  0
  -17.7640   -1.2210    0.4190 H   0  0  0  0  0  0  0  0  0  0  0  0
  -19.2710   -1.1770   -0.4940 H   0  0  0  0  0  0  0  0  0  0  0  0
  -20.0800    0.4720    1.8390 H   0  0  0  0  0  0  0  0  0  0  0  0
  -23.7490    2.3670   -0.4080 H   0  0  0  0  0  0  0  0  0  0  0  0
  -24.9220    1.3000    0.3650 H   0  0  0  0  0  0  0  0  0  0  0  0
  -21.8760   -0.8340   -0.1780 H   0  0  0  0  0  0  0  0  0  0  0  0
  -23.5500   -0.5530   -0.6450 H   0  0  0  0  0  0  0  0  0  0  0  0
  -22.2790    0.5290   -1.2300 H   0  0  0  0  0  0  0  0  0  0  0  0
  -23.3650    0.5300    3.0040 H   0  0  0  0  0  0  0  0  0  0  0  0
  -24.1400   -0.5900    1.8800 H   0  0  0  0  0  0  0  0  0  0  0  0
  -22.4340   -0.7880    2.2930 H   0  0  0  0  0  0  0  0  0  0  0  0
  -19.5860    3.3050    1.9920 H   0  0  0  0  0  0  0  0  0  0  0  0
  -20.6360    4.6960    1.8360 H   0  0  0  0  0  0  0  0  0  0  0  0
  -20.5350    3.8160    3.3730 H   0  0  0  0  0  0  0  0  0  0  0  0
  -24.7700    3.7520    1.1810 H   0  0  0  0  0  0  0  0  0  0  0  0
  -24.8180    2.4930    2.4200 H   0  0  0  0  0  0  0  0  0  0  0  0
  1  3  2  0  0  0  0
  1  2  1  0  0  0  0
  1  4  1  0  0  0  0
  2  7  1  0  0  0  0
  2  5  1  0  0  0  0
  2  6  1  0  0  0  0
  3  9  1  0  0  0  0
  3  8  1  0  0  0  0
  4 43  1  0  0  0  0
  4 10  2  0  0  0  0
  5 11  1  0  0  0  0
  5 45  1  0  0  0  0
  5 44  1  0  0  0  0
  6 46  1  0  0  0  0
  6 47  1  0  0  0  0
  6 48  1  0  0  0  0
  7 49  1  0  0  0  0
  7 50  1  0  0  0  0
  7 51  1  0  0  0  0
  8 12  2  0  0  0  0
  8 11  1  0  0  0  0
  9 52  1  0  0  0  0
  9 54  1  0  0  0  0
  9 53  1  0  0  0  0
 10 13  1  0  0  0  0
 10 55  1  0  0  0  0
 11 57  1  0  0  0  0
 11 56  1  0  0  0  0
 13 14  2  0  0  0  0
 13 15  1  0  0  0  0
 14 16  1  0  0  0  0
 14 58  1  0  0  0  0
 15 61  1  0  0  0  0
 15 59  1  0  0  0  0
 15 60  1  0  0  0  0
 16 17  2  0  0  0  0
 16 62  1  0  0  0  0
 17 18  1  0  0  0  0
 17 63  1  0  0  0  0
 18 20  1  0  0  0  0
 18 19  2  0  0  0  0
 19 21  1  0  0  0  0
 19 64  1  0  0  0  0
 20 67  1  0  0  0  0
 20 65  1  0  0  0  0
 20 66  1  0  0  0  0
 21 68  1  0  0  0  0
 21 22  2  0  0  0  0
 22 23  1  0  0  0  0
 22 69  1  0  0  0  0
 23 70  1  0  0  0  0
 23 24  2  0  0  0  0
 24 25  1  0  0  0  0
 24 26  1  0  0  0  0
 25 27  2  0  0  0  0
 25 71  1  0  0  0  0
 26 73  1  0  0  0  0
 26 72  1  0  0  0  0
 26 74  1  0  0  0  0
 27 75  1  0  0  0  0
 27 28  1  0  0  0  0
 28 76  1  0  0  0  0
 28 29  2  0  0  0  0
 29 30  1  0  0  0  0
 29 31  1  0  0  0  0
 30 32  2  0  0  0  0
 30 77  1  0  0  0  0
 31 79  1  0  0  0  0
 31 78  1  0  0  0  0
 31 80  1  0  0  0  0
 32 33  1  0  0  0  0
 32 81  1  0  0  0  0
 33 35  2  0  0  0  0
 33 34  1  0  0  0  0
 34 38  1  0  0  0  0
 34 36  1  0  0  0  0
 34 37  1  0  0  0  0
 35 39  1  0  0  0  0
 35 40  1  0  0  0  0
 36 41  1  0  0  0  0
 36 82  1  0  0  0  0
 36 83  1  0  0  0  0
 37 84  1  0  0  0  0
 37 85  1  0  0  0  0
 37 86  1  0  0  0  0
 38 89  1  0  0  0  0
 38 87  1  0  0  0  0
 38 88  1  0  0  0  0
 39 42  2  0  0  0  0
 39 41  1  0  0  0  0
 40 92  1  0  0  0  0
 40 90  1  0  0  0  0
 40 91  1  0  0  0  0
 41 94  1  0  0  0  0
 41 93  1  0  0  0  0
M  END
