decoy-1018
 OpenBabel06062114513D

 25 24  0  0  0  0  0  0  0  0999 V2000
   -0.1930    1.7680   -0.0700 C   0  0  0  0  0  0  0  0  0  0  0  0
   -0.1930   -0.0320    0.0880 S   0  0  0  0  0  0  0  0  0  0  0  0
    1.2510    2.3340   -0.0800 C   0  0  0  0  0  0  0  0  0  0  0  0
   -0.8880    2.0920   -1.2710 O   0  0  0  0  0  0  0  0  0  0  0  0
    0.6260   -0.7360   -1.2120 O   0  0  0  0  0  0  0  0  0  0  0  0
    0.5510   -0.4940    1.5340 O   0  0  0  0  0  0  0  0  0  0  0  0
   -1.7860   -0.5950    0.0970 O   0  0  0  0  0  0  0  0  0  0  0  0
    1.3060    3.8850   -0.1190 C   0  0  0  0  0  0  0  0  0  0  0  0
    2.7590    4.4310   -0.0800 C   0  0  0  0  0  0  0  0  0  0  0  0
    2.8360    5.9800   -0.0690 C   0  0  0  0  0  0  0  0  0  0  0  0
    4.5430    6.5520    0.0900 S   0  0  0  0  0  0  0  0  0  0  0  0
    2.3080    6.5360   -1.2690 O   0  0  0  0  0  0  0  0  0  0  0  0
    5.4710    6.0000   -1.2100 O   0  0  0  0  0  0  0  0  0  0  0  0
    4.5700    8.2420    0.1000 O   0  0  0  0  0  0  0  0  0  0  0  0
    5.2170    5.9930    1.5360 O   0  0  0  0  0  0  0  0  0  0  0  0
   -0.7470    2.1790    0.7770 H   0  0  0  0  0  0  0  0  0  0  0  0
    1.7680    1.9900    0.8200 H   0  0  0  0  0  0  0  0  0  0  0  0
    1.7830    1.9360   -0.9490 H   0  0  0  0  0  0  0  0  0  0  0  0
   -0.9630    3.0690   -1.2700 H   0  0  0  0  0  0  0  0  0  0  0  0
    0.8190    4.2350   -1.0320 H   0  0  0  0  0  0  0  0  0  0  0  0
    0.7540    4.2820    0.7380 H   0  0  0  0  0  0  0  0  0  0  0  0
    3.2490    4.0500    0.8210 H   0  0  0  0  0  0  0  0  0  0  0  0
    3.3060    4.0530   -0.9480 H   0  0  0  0  0  0  0  0  0  0  0  0
    2.2700    6.3740    0.7780 H   0  0  0  0  0  0  0  0  0  0  0  0
    1.3580    6.2960   -1.2690 H   0  0  0  0  0  0  0  0  0  0  0  0
  1  2  1  0  0  0  0
  1 16  1  0  0  0  0
  1  3  1  0  0  0  0
  1  4  1  0  0  0  0
  2  7  2  0  0  0  0
  2  6  1  0  0  0  0
  2  5  2  0  0  0  0
  3 17  1  0  0  0  0
  3  8  1  0  0  0  0
  3 18  1  0  0  0  0
  4 19  1  0  0  0  0
  8  9  1  0  0  0  0
  8 21  1  0  0  0  0
  8 20  1  0  0  0  0
  9 10  1  0  0  0  0
  9 22  1  0  0  0  0
  9 23  1  0  0  0  0
 10 11  1  0  0  0  0
 10 24  1  0  0  0  0
 10 12  1  0  0  0  0
 11 14  2  0  0  0  0
 11 15  1  0  0  0  0
 11 13  2  0  0  0  0
 12 25  1  0  0  0  0
M  END
