decoy-842
 OpenBabel06062114513D

 28 30  0  0  0  0  0  0  0  0999 V2000
    0.1470    1.5130    0.0380 C   0  0  0  0  0  0  0  0  0  0  0  0
    0.0400    0.0980   -0.1480 C   0  0  0  0  0  0  0  0  0  0  0  0
    1.3410    2.2120   -0.0660 C   0  0  0  0  0  0  0  0  0  0  0  0
   -1.0230    2.2780    0.2830 C   0  0  0  0  0  0  0  0  0  0  0  0
    1.1810   -0.8450   -0.4230 C   0  0  0  0  0  0  0  0  0  0  0  0
   -1.2610   -0.4730   -0.1370 C   0  0  0  0  0  0  0  0  0  0  0  0
    2.1810    2.0520   -1.1510 C   0  0  0  0  0  0  0  0  0  0  0  0
    1.6710    2.9980    0.8130 O   0  0  0  0  0  0  0  0  0  0  0  0
   -2.2890    1.6750    0.3270 C   0  0  0  0  0  0  0  0  0  0  0  0
    2.6560   -0.3370   -0.4560 C   0  0  0  0  0  0  0  0  0  0  0  0
    1.1230   -2.3400    0.8120 Br  0  0  0  0  0  0  0  0  0  0  0  0
   -2.4090    0.2980    0.1070 C   0  0  0  0  0  0  0  0  0  0  0  0
    2.8450    0.8170   -1.3820 C   0  0  0  0  0  0  0  0  0  0  0  0
    2.3780    3.1360   -2.0380 C   0  0  0  0  0  0  0  0  0  0  0  0
    3.3590    0.1070    1.2940 Br  0  0  0  0  0  0  0  0  0  0  0  0
    3.6930    0.7000   -2.5110 C   0  0  0  0  0  0  0  0  0  0  0  0
    3.2240    3.0000   -3.1520 C   0  0  0  0  0  0  0  0  0  0  0  0
    3.8810    1.7820   -3.3880 C   0  0  0  0  0  0  0  0  0  0  0  0
   -0.9690    3.2930    0.4140 H   0  0  0  0  0  0  0  0  0  0  0  0
    0.9860   -1.2700   -1.4130 H   0  0  0  0  0  0  0  0  0  0  0  0
   -1.3900   -1.4730   -0.3110 H   0  0  0  0  0  0  0  0  0  0  0  0
   -3.1230    2.2410    0.4990 H   0  0  0  0  0  0  0  0  0  0  0  0
    3.2670   -1.1810   -0.7920 H   0  0  0  0  0  0  0  0  0  0  0  0
   -3.3310   -0.1440    0.1190 H   0  0  0  0  0  0  0  0  0  0  0  0
    1.9040    4.0310   -1.8840 H   0  0  0  0  0  0  0  0  0  0  0  0
    4.1830   -0.1760   -2.7050 H   0  0  0  0  0  0  0  0  0  0  0  0
    3.3600    3.7870   -3.7900 H   0  0  0  0  0  0  0  0  0  0  0  0
    4.4970    1.6830   -4.1990 H   0  0  0  0  0  0  0  0  0  0  0  0
  1  4  2  0  0  0  0
  1  2  1  0  0  0  0
  1  3  1  0  0  0  0
  2  6  2  0  0  0  0
  2  5  1  0  0  0  0
  3  8  2  0  0  0  0
  3  7  1  0  0  0  0
  4  9  1  0  0  0  0
  4 19  1  0  0  0  0
  5 10  1  0  0  0  0
  5 11  1  0  0  0  0
  5 20  1  0  0  0  0
  6 12  1  0  0  0  0
  6 21  1  0  0  0  0
  7 13  2  0  0  0  0
  7 14  1  0  0  0  0
  9 22  1  0  0  0  0
  9 12  2  0  0  0  0
 10 23  1  0  0  0  0
 10 15  1  0  0  0  0
 10 13  1  0  0  0  0
 12 24  1  0  0  0  0
 13 16  1  0  0  0  0
 14 25  1  0  0  0  0
 14 17  2  0  0  0  0
 16 18  2  0  0  0  0
 16 26  1  0  0  0  0
 17 18  1  0  0  0  0
 17 27  1  0  0  0  0
 18 28  1  0  0  0  0
M  END
