decoy-135
 OpenBabel06062114503D

 27 28  0  0  0  0  0  0  0  0999 V2000
   -0.0980    1.5670    0.0180 C   0  0  0  0  0  0  0  0  0  0  0  0
    0.2890    0.0570   -0.1420 C   0  0  0  0  0  0  0  0  0  0  0  0
    1.4270    1.9210    0.1310 C   0  0  0  0  0  0  0  0  0  0  0  0
   -0.8820    2.1890   -1.2060 C   0  0  0  0  0  0  0  0  0  0  0  0
   -0.9670    1.9410    1.2830 C   0  0  0  0  0  0  0  0  0  0  0  0
    1.2390    0.1240   -1.2600 C   0  0  0  0  0  0  0  0  0  0  0  0
    1.1540   -0.2510    1.1330 C   0  0  0  0  0  0  0  0  0  0  0  0
   -0.8870   -0.9410   -0.3360 C   0  0  0  0  0  0  0  0  0  0  0  0
    2.0850    1.2890   -1.1410 C   0  0  0  0  0  0  0  0  0  0  0  0
    1.9200    1.0850    1.3580 C   0  0  0  0  0  0  0  0  0  0  0  0
   -0.7850    4.1190   -1.2660 Br  0  0  0  0  0  0  0  0  0  0  0  0
    1.3600   -0.7060   -2.1500 O   0  0  0  0  0  0  0  0  0  0  0  0
    2.1150    2.4330   -2.7000 Br  0  0  0  0  0  0  0  0  0  0  0  0
    1.6400    2.9870    0.2400 H   0  0  0  0  0  0  0  0  0  0  0  0
   -0.5320    1.8180   -2.1660 H   0  0  0  0  0  0  0  0  0  0  0  0
   -1.9390    1.9170   -1.1630 H   0  0  0  0  0  0  0  0  0  0  0  0
   -0.6300    1.4870    2.2100 H   0  0  0  0  0  0  0  0  0  0  0  0
   -0.9580    3.0210    1.4360 H   0  0  0  0  0  0  0  0  0  0  0  0
   -2.0030    1.6240    1.1500 H   0  0  0  0  0  0  0  0  0  0  0  0
    0.5340   -0.4980    1.9990 H   0  0  0  0  0  0  0  0  0  0  0  0
    1.8450   -1.0840    0.9680 H   0  0  0  0  0  0  0  0  0  0  0  0
   -1.4430   -0.7070   -1.2460 H   0  0  0  0  0  0  0  0  0  0  0  0
   -0.5070   -1.9610   -0.4140 H   0  0  0  0  0  0  0  0  0  0  0  0
   -1.5720   -0.8920    0.5110 H   0  0  0  0  0  0  0  0  0  0  0  0
    3.1200    0.9840   -0.9670 H   0  0  0  0  0  0  0  0  0  0  0  0
    3.0030    0.9380    1.3590 H   0  0  0  0  0  0  0  0  0  0  0  0
    1.6500    1.5610    2.3030 H   0  0  0  0  0  0  0  0  0  0  0  0
  1  2  1  0  0  0  0
  1  3  1  0  0  0  0
  1  5  1  0  0  0  0
  1  4  1  0  0  0  0
  2  8  1  0  0  0  0
  2  7  1  0  0  0  0
  2  6  1  0  0  0  0
  3  9  1  0  0  0  0
  3 14  1  0  0  0  0
  3 10  1  0  0  0  0
  4 16  1  0  0  0  0
  4 11  1  0  0  0  0
  4 15  1  0  0  0  0
  5 18  1  0  0  0  0
  5 17  1  0  0  0  0
  5 19  1  0  0  0  0
  6  9  1  0  0  0  0
  6 12  2  0  0  0  0
  7 10  1  0  0  0  0
  7 20  1  0  0  0  0
  7 21  1  0  0  0  0
  8 24  1  0  0  0  0
  8 22  1  0  0  0  0
  8 23  1  0  0  0  0
  9 25  1  0  0  0  0
  9 13  1  0  0  0  0
 10 26  1  0  0  0  0
 10 27  1  0  0  0  0
M  END
