decoy-1
 OpenBabel06062114503D

 35 37  0  0  0  0  0  0  0  0999 V2000
   -0.6410    1.3800    0.4210 C   0  0  0  0  0  0  0  0  0  0  0  0
   -0.0870   -0.0090    0.2490 C   0  0  0  0  0  0  0  0  0  0  0  0
    0.3780    2.2230    1.1380 C   0  0  0  0  0  0  0  0  0  0  0  0
   -1.2370    2.0430   -0.7940 C   0  0  0  0  0  0  0  0  0  0  0  0
    1.0860   -0.2530   -0.5110 C   0  0  0  0  0  0  0  0  0  0  0  0
   -0.7220   -1.1210    0.8590 C   0  0  0  0  0  0  0  0  0  0  0  0
    0.4100    2.2460    2.5550 C   0  0  0  0  0  0  0  0  0  0  0  0
    1.3460    2.9910    0.4400 C   0  0  0  0  0  0  0  0  0  0  0  0
   -1.8460    3.3160   -0.6450 C   0  0  0  0  0  0  0  0  0  0  0  0
   -1.2710    1.4510   -2.0850 C   0  0  0  0  0  0  0  0  0  0  0  0
    1.6030   -1.5540   -0.6570 C   0  0  0  0  0  0  0  0  0  0  0  0
   -0.2070   -2.4230    0.7140 C   0  0  0  0  0  0  0  0  0  0  0  0
    1.3630    3.0150    3.2490 C   0  0  0  0  0  0  0  0  0  0  0  0
    2.2990    3.7610    1.1310 C   0  0  0  0  0  0  0  0  0  0  0  0
   -2.4310    3.9840   -1.7370 C   0  0  0  0  0  0  0  0  0  0  0  0
   -1.8550    2.1150   -3.1790 C   0  0  0  0  0  0  0  0  0  0  0  0
    0.9560   -2.6390   -0.0440 C   0  0  0  0  0  0  0  0  0  0  0  0
    2.3070    3.7740    2.5370 C   0  0  0  0  0  0  0  0  0  0  0  0
   -2.4320    3.3840   -3.0070 C   0  0  0  0  0  0  0  0  0  0  0  0
    1.5710    0.5170   -0.9750 H   0  0  0  0  0  0  0  0  0  0  0  0
   -1.5690   -0.9940    1.4170 H   0  0  0  0  0  0  0  0  0  0  0  0
   -0.2620    1.6950    3.0960 H   0  0  0  0  0  0  0  0  0  0  0  0
    1.3620    2.9970   -0.5820 H   0  0  0  0  0  0  0  0  0  0  0  0
   -1.8670    3.7730    0.2700 H   0  0  0  0  0  0  0  0  0  0  0  0
   -0.8810    0.5230   -2.2480 H   0  0  0  0  0  0  0  0  0  0  0  0
    2.4480   -1.7100   -1.2110 H   0  0  0  0  0  0  0  0  0  0  0  0
   -0.6790   -3.2120    1.1610 H   0  0  0  0  0  0  0  0  0  0  0  0
    1.3700    3.0200    4.2710 H   0  0  0  0  0  0  0  0  0  0  0  0
    2.9870    4.3100    0.6120 H   0  0  0  0  0  0  0  0  0  0  0  0
   -2.8580    4.9040   -1.6060 H   0  0  0  0  0  0  0  0  0  0  0  0
   -1.8660    1.6720   -4.1010 H   0  0  0  0  0  0  0  0  0  0  0  0
    1.3300   -3.5850   -0.1500 H   0  0  0  0  0  0  0  0  0  0  0  0
    3.0000    4.3320    3.0400 H   0  0  0  0  0  0  0  0  0  0  0  0
   -2.8580    3.8660   -3.8010 H   0  0  0  0  0  0  0  0  0  0  0  0
   -1.5040    1.3020    1.0910 H   0  0  0  0  0  0  0  0  0  0  0  0
  1 35  1  0  0  0  0
  1  3  1  0  0  0  0
  1  2  1  0  0  0  0
  1  4  1  0  0  0  0
  2  6  2  0  0  0  0
  2  5  1  0  0  0  0
  3  7  2  0  0  0  0
  3  8  1  0  0  0  0
  4  9  2  0  0  0  0
  4 10  1  0  0  0  0
  5 11  2  0  0  0  0
  5 20  1  0  0  0  0
  6 21  1  0  0  0  0
  6 12  1  0  0  0  0
  7 22  1  0  0  0  0
  7 13  1  0  0  0  0
  8 14  2  0  0  0  0
  8 23  1  0  0  0  0
  9 24  1  0  0  0  0
  9 15  1  0  0  0  0
 10 16  2  0  0  0  0
 10 25  1  0  0  0  0
 11 17  1  0  0  0  0
 11 26  1  0  0  0  0
 12 27  1  0  0  0  0
 12 17  2  0  0  0  0
 13 28  1  0  0  0  0
 13 18  2  0  0  0  0
 14 18  1  0  0  0  0
 14 29  1  0  0  0  0
 15 30  1  0  0  0  0
 15 19  2  0  0  0  0
 16 19  1  0  0  0  0
 16 31  1  0  0  0  0
 17 32  1  0  0  0  0
 18 33  1  0  0  0  0
 19 34  1  0  0  0  0
M  END
