decoy-781
 OpenBabel06062114513D

 70 70  0  0  0  0  0  0  0  0999 V2000
    0.0560    1.3470   -0.1140 C   0  0  0  0  0  0  0  0  0  0  0  0
    0.4920   -0.0520   -0.4360 *   0  0  0  0  0  0  0  0  0  0  0  0
    1.2740    2.1210   -0.0740 O   0  0  0  0  0  0  0  0  0  0  0  0
   -0.8200    1.8770   -1.3010 C   0  0  0  0  0  0  0  0  0  0  0  0
   -0.6090    1.5330    1.2980 C   0  0  0  0  0  0  0  0  0  0  0  0
    1.9770   -0.0890   -0.4180 C   0  0  0  0  0  0  0  0  0  0  0  0
   -0.0940   -1.0550    0.2750 O   0  0  0  0  0  0  0  0  0  0  0  0
    2.2870    1.3850   -0.7570 C   0  0  0  0  0  0  0  0  0  0  0  0
   -1.1670    3.3920   -1.2600 C   0  0  0  0  0  0  0  0  0  0  0  0
   -2.0830    1.0590    1.4680 C   0  0  0  0  0  0  0  0  0  0  0  0
    2.5950   -0.4760    0.9660 C   0  0  0  0  0  0  0  0  0  0  0  0
    2.5030   -1.0540   -1.5200 C   0  0  0  0  0  0  0  0  0  0  0  0
   -2.0050    3.8440   -2.4860 C   0  0  0  0  0  0  0  0  0  0  0  0
   -2.5730    1.1530    2.9380 C   0  0  0  0  0  0  0  0  0  0  0  0
   -2.3550    5.3560   -2.4460 C   0  0  0  0  0  0  0  0  0  0  0  0
   -4.0490    0.7040    3.1070 C   0  0  0  0  0  0  0  0  0  0  0  0
   -3.1930    5.8070   -3.6720 C   0  0  0  0  0  0  0  0  0  0  0  0
   -4.5360    0.7970    4.5780 C   0  0  0  0  0  0  0  0  0  0  0  0
   -3.5530    7.2380   -3.6820 C   0  0  0  0  0  0  0  0  0  0  0  0
   -6.0120    0.3490    4.7470 C   0  0  0  0  0  0  0  0  0  0  0  0
   -4.2830    7.7290   -4.7090 O   0  0  0  0  0  0  0  0  0  0  0  0
   -3.1830    8.0930   -2.7010 O   0  0  0  0  0  0  0  0  0  0  0  0
   -6.4990    0.4420    6.2170 C   0  0  0  0  0  0  0  0  0  0  0  0
   -7.9750   -0.0070    6.3860 C   0  0  0  0  0  0  0  0  0  0  0  0
   -8.4620    0.0860    7.8570 C   0  0  0  0  0  0  0  0  0  0  0  0
   -9.9380   -0.3630    8.0250 C   0  0  0  0  0  0  0  0  0  0  0  0
  -10.4260   -0.2720    9.4870 C   0  0  0  0  0  0  0  0  0  0  0  0
   -0.2860    1.6890   -2.2370 H   0  0  0  0  0  0  0  0  0  0  0  0
   -1.7440    1.2970   -1.3470 H   0  0  0  0  0  0  0  0  0  0  0  0
    0.0050    1.0100    2.0340 H   0  0  0  0  0  0  0  0  0  0  0  0
   -0.5730    2.5930    1.5640 H   0  0  0  0  0  0  0  0  0  0  0  0
    0.2250   -1.8830   -0.1410 H   0  0  0  0  0  0  0  0  0  0  0  0
    2.2120    1.5840   -1.8300 H   0  0  0  0  0  0  0  0  0  0  0  0
    3.2760    1.6990   -0.4180 H   0  0  0  0  0  0  0  0  0  0  0  0
   -1.7310    3.6160   -0.3530 H   0  0  0  0  0  0  0  0  0  0  0  0
   -0.2400    3.9710   -1.2350 H   0  0  0  0  0  0  0  0  0  0  0  0
   -2.7360    1.6790    0.8500 H   0  0  0  0  0  0  0  0  0  0  0  0
   -2.1860    0.0270    1.1310 H   0  0  0  0  0  0  0  0  0  0  0  0
    3.6860   -0.4250    0.9250 H   0  0  0  0  0  0  0  0  0  0  0  0
    2.2560    0.1990    1.7520 H   0  0  0  0  0  0  0  0  0  0  0  0
    2.3140   -1.4930    1.2430 H   0  0  0  0  0  0  0  0  0  0  0  0
    3.5890   -0.9850   -1.6030 H   0  0  0  0  0  0  0  0  0  0  0  0
    2.2370   -2.0860   -1.2800 H   0  0  0  0  0  0  0  0  0  0  0  0
    2.0670   -0.8100   -2.4910 H   0  0  0  0  0  0  0  0  0  0  0  0
   -1.4430    3.6340   -3.4000 H   0  0  0  0  0  0  0  0  0  0  0  0
   -2.9330    3.2650   -2.5150 H   0  0  0  0  0  0  0  0  0  0  0  0
   -1.9360    0.5230    3.5660 H   0  0  0  0  0  0  0  0  0  0  0  0
   -2.4740    2.1870    3.2810 H   0  0  0  0  0  0  0  0  0  0  0  0
   -2.9190    5.5660   -1.5320 H   0  0  0  0  0  0  0  0  0  0  0  0
   -1.4270    5.9340   -2.4160 H   0  0  0  0  0  0  0  0  0  0  0  0
   -4.6860    1.3350    2.4810 H   0  0  0  0  0  0  0  0  0  0  0  0
   -4.1480   -0.3290    2.7640 H   0  0  0  0  0  0  0  0  0  0  0  0
   -2.6310    5.5960   -4.5840 H   0  0  0  0  0  0  0  0  0  0  0  0
   -4.1200    5.2280   -3.7020 H   0  0  0  0  0  0  0  0  0  0  0  0
   -3.8980    0.1670    5.2040 H   0  0  0  0  0  0  0  0  0  0  0  0
   -4.4370    1.8310    4.9210 H   0  0  0  0  0  0  0  0  0  0  0  0
   -6.6490    0.9790    4.1200 H   0  0  0  0  0  0  0  0  0  0  0  0
   -6.1110   -0.6850    4.4040 H   0  0  0  0  0  0  0  0  0  0  0  0
   -5.8620   -0.1890    6.8440 H   0  0  0  0  0  0  0  0  0  0  0  0
   -6.4000    1.4750    6.5600 H   0  0  0  0  0  0  0  0  0  0  0  0
   -8.6130    0.6230    5.7600 H   0  0  0  0  0  0  0  0  0  0  0  0
   -8.0740   -1.0410    6.0430 H   0  0  0  0  0  0  0  0  0  0  0  0
   -7.8250   -0.5450    8.4840 H   0  0  0  0  0  0  0  0  0  0  0  0
   -8.3630    1.1190    8.2000 H   0  0  0  0  0  0  0  0  0  0  0  0
  -10.5810    0.2660    7.4030 H   0  0  0  0  0  0  0  0  0  0  0  0
  -10.0430   -1.3970    7.6860 H   0  0  0  0  0  0  0  0  0  0  0  0
  -11.4660   -0.5970    9.5510 H   0  0  0  0  0  0  0  0  0  0  0  0
   -9.8210   -0.9130   10.1320 H   0  0  0  0  0  0  0  0  0  0  0  0
  -10.3610    0.7570    9.8470 H   0  0  0  0  0  0  0  0  0  0  0  0
    0.2200   -0.2160   -1.4080 H   0  0  0  0  0  0  0  0  0  0  0  0
  1  4  1  0  0  0  0
  1  3  1  0  0  0  0
  1  5  1  0  0  0  0
  1  2  1  0  0  0  0
  2  6  1  0  0  0  0
  2  7  1  0  0  0  0
  2 70  1  0  0  0  0
  3  8  1  0  0  0  0
  4  9  1  0  0  0  0
  4 28  1  0  0  0  0
  4 29  1  0  0  0  0
  5 10  1  0  0  0  0
  5 31  1  0  0  0  0
  5 30  1  0  0  0  0
  6 11  1  0  0  0  0
  6  8  1  0  0  0  0
  6 12  1  0  0  0  0
  7 32  1  0  0  0  0
  8 34  1  0  0  0  0
  8 33  1  0  0  0  0
  9 36  1  0  0  0  0
  9 35  1  0  0  0  0
  9 13  1  0  0  0  0
 10 14  1  0  0  0  0
 10 37  1  0  0  0  0
 10 38  1  0  0  0  0
 11 41  1  0  0  0  0
 11 40  1  0  0  0  0
 11 39  1  0  0  0  0
 12 43  1  0  0  0  0
 12 42  1  0  0  0  0
 12 44  1  0  0  0  0
 13 15  1  0  0  0  0
 13 45  1  0  0  0  0
 13 46  1  0  0  0  0
 14 16  1  0  0  0  0
 14 48  1  0  0  0  0
 14 47  1  0  0  0  0
 15 50  1  0  0  0  0
 15 49  1  0  0  0  0
 15 17  1  0  0  0  0
 16 18  1  0  0  0  0
 16 51  1  0  0  0  0
 16 52  1  0  0  0  0
 17 19  1  0  0  0  0
 17 53  1  0  0  0  0
 17 54  1  0  0  0  0
 18 20  1  0  0  0  0
 18 56  1  0  0  0  0
 18 55  1  0  0  0  0
 19 22  1  0  0  0  0
 19 21  2  0  0  0  0
 20 23  1  0  0  0  0
 20 57  1  0  0  0  0
 20 58  1  0  0  0  0
 23 24  1  0  0  0  0
 23 60  1  0  0  0  0
 23 59  1  0  0  0  0
 24 25  1  0  0  0  0
 24 61  1  0  0  0  0
 24 62  1  0  0  0  0
 25 26  1  0  0  0  0
 25 64  1  0  0  0  0
 25 63  1  0  0  0  0
 26 27  1  0  0  0  0
 26 65  1  0  0  0  0
 26 66  1  0  0  0  0
 27 67  1  0  0  0  0
 27 69  1  0  0  0  0
 27 68  1  0  0  0  0
M  END
