decoy-652
 OpenBabel06062114513D

 49 52  0  0  0  0  0  0  0  0999 V2000
   -0.3110    0.9050   -0.1170 C   0  0  0  0  0  0  0  0  0  0  0  0
   -0.2120   -0.4080   -0.4360 C   0  0  0  0  0  0  0  0  0  0  0  0
    0.7770    1.6470    0.3120 C   0  0  0  0  0  0  0  0  0  0  0  0
   -1.4850    1.5810   -0.1820 O   0  0  0  0  0  0  0  0  0  0  0  0
   -1.3200   -1.0690   -0.8980 C   0  0  0  0  0  0  0  0  0  0  0  0
    0.9800   -1.0360   -0.3920 O   0  0  0  0  0  0  0  0  0  0  0  0
    0.8330    2.1160    1.6450 C   0  0  0  0  0  0  0  0  0  0  0  0
    1.8430    1.9470   -0.5660 C   0  0  0  0  0  0  0  0  0  0  0  0
   -2.6420    0.8730   -0.4410 C   0  0  0  0  0  0  0  0  0  0  0  0
   -2.5950   -0.5000   -0.8030 C   0  0  0  0  0  0  0  0  0  0  0  0
   -1.1510   -2.1000   -1.5370 O   0  0  0  0  0  0  0  0  0  0  0  0
    1.2150   -1.8420    0.7840 C   0  0  0  0  0  0  0  0  0  0  0  0
    1.9440    2.8530    2.1010 C   0  0  0  0  0  0  0  0  0  0  0  0
    2.9520    2.6850   -0.1130 C   0  0  0  0  0  0  0  0  0  0  0  0
   -3.8740    1.5450   -0.3420 C   0  0  0  0  0  0  0  0  0  0  0  0
   -3.8150   -1.1900   -1.0330 C   0  0  0  0  0  0  0  0  0  0  0  0
    2.6100   -2.5100    0.6290 C   0  0  0  0  0  0  0  0  0  0  0  0
    1.1820   -1.0190    1.9750 O   0  0  0  0  0  0  0  0  0  0  0  0
    3.0080    3.1370    1.2190 C   0  0  0  0  0  0  0  0  0  0  0  0
    1.9940    3.2870    3.3870 O   0  0  0  0  0  0  0  0  0  0  0  0
   -5.0770    0.8590   -0.5930 C   0  0  0  0  0  0  0  0  0  0  0  0
   -5.0420   -0.5040   -0.9350 C   0  0  0  0  0  0  0  0  0  0  0  0
   -3.8680   -2.5120   -1.3370 O   0  0  0  0  0  0  0  0  0  0  0  0
    3.0030   -3.2700    1.9250 C   0  0  0  0  0  0  0  0  0  0  0  0
    2.6040   -3.4120   -0.4770 O   0  0  0  0  0  0  0  0  0  0  0  0
    1.4510   -1.7190    3.2050 C   0  0  0  0  0  0  0  0  0  0  0  0
    4.0950    3.8440    1.6220 O   0  0  0  0  0  0  0  0  0  0  0  0
   -6.2720    1.4940   -0.5010 O   0  0  0  0  0  0  0  0  0  0  0  0
    2.8590   -2.3630    3.1770 C   0  0  0  0  0  0  0  0  0  0  0  0
    4.3390   -3.7610    1.8300 O   0  0  0  0  0  0  0  0  0  0  0  0
    3.8440   -1.3280    3.1740 O   0  0  0  0  0  0  0  0  0  0  0  0
    0.0690    1.9100    2.2950 H   0  0  0  0  0  0  0  0  0  0  0  0
    1.8230    1.6270   -1.5380 H   0  0  0  0  0  0  0  0  0  0  0  0
    0.4510   -2.6250    0.8520 H   0  0  0  0  0  0  0  0  0  0  0  0
    3.7190    2.8910   -0.7570 H   0  0  0  0  0  0  0  0  0  0  0  0
   -3.8940    2.5340   -0.0850 H   0  0  0  0  0  0  0  0  0  0  0  0
    3.3560   -1.7350    0.4300 H   0  0  0  0  0  0  0  0  0  0  0  0
    1.1640    2.9790    3.8070 H   0  0  0  0  0  0  0  0  0  0  0  0
   -5.9190   -1.0030   -1.1060 H   0  0  0  0  0  0  0  0  0  0  0  0
   -3.1070   -2.9210   -0.8760 H   0  0  0  0  0  0  0  0  0  0  0  0
    2.3440   -4.1360    2.0440 H   0  0  0  0  0  0  0  0  0  0  0  0
    2.3980   -2.8570   -1.2590 H   0  0  0  0  0  0  0  0  0  0  0  0
    1.3940   -1.0010    4.0250 H   0  0  0  0  0  0  0  0  0  0  0  0
    0.6870   -2.4830    3.3780 H   0  0  0  0  0  0  0  0  0  0  0  0
    3.9440    4.0610    2.5650 H   0  0  0  0  0  0  0  0  0  0  0  0
   -6.0650    2.4190   -0.2520 H   0  0  0  0  0  0  0  0  0  0  0  0
    3.0000   -2.9610    4.0810 H   0  0  0  0  0  0  0  0  0  0  0  0
    4.3360   -4.3630    1.0560 H   0  0  0  0  0  0  0  0  0  0  0  0
    4.7060   -1.7950    3.2070 H   0  0  0  0  0  0  0  0  0  0  0  0
  1  3  1  0  0  0  0
  1  2  2  0  0  0  0
  1  4  1  0  0  0  0
  2  6  1  0  0  0  0
  2  5  1  0  0  0  0
  3  7  2  0  0  0  0
  3  8  1  0  0  0  0
  4  9  1  0  0  0  0
  5 10  1  0  0  0  0
  5 11  2  0  0  0  0
  6 12  1  0  0  0  0
  7 13  1  0  0  0  0
  7 32  1  0  0  0  0
  8 14  2  0  0  0  0
  8 33  1  0  0  0  0
  9 15  2  0  0  0  0
  9 10  1  0  0  0  0
 10 16  2  0  0  0  0
 12 17  1  0  0  0  0
 12 34  1  0  0  0  0
 12 18  1  0  0  0  0
 13 20  1  0  0  0  0
 13 19  2  0  0  0  0
 14 19  1  0  0  0  0
 14 35  1  0  0  0  0
 15 36  1  0  0  0  0
 15 21  1  0  0  0  0
 16 22  1  0  0  0  0
 16 23  1  0  0  0  0
 17 24  1  0  0  0  0
 17 25  1  0  0  0  0
 17 37  1  0  0  0  0
 18 26  1  0  0  0  0
 19 27  1  0  0  0  0
 20 38  1  0  0  0  0
 21 28  1  0  0  0  0
 21 22  2  0  0  0  0
 22 39  1  0  0  0  0
 23 40  1  0  0  0  0
 24 41  1  0  0  0  0
 24 29  1  0  0  0  0
 24 30  1  0  0  0  0
 25 42  1  0  0  0  0
 26 44  1  0  0  0  0
 26 43  1  0  0  0  0
 26 29  1  0  0  0  0
 27 45  1  0  0  0  0
 28 46  1  0  0  0  0
 29 47  1  0  0  0  0
 29 31  1  0  0  0  0
 30 48  1  0  0  0  0
 31 49  1  0  0  0  0
M  END
