decoy-943
 OpenBabel06062114513D

 58 66  0  0  0  0  0  0  0  0999 V2000
    0.1620    1.3960    0.7120 C   0  0  0  0  0  0  0  0  0  0  0  0
    0.1840    0.0000    0.7120 C   0  0  0  0  0  0  0  0  0  0  0  0
    1.3720    1.8230    0.1730 C   0  0  0  0  0  0  0  0  0  0  0  0
   -0.9530    2.1010    1.2020 C   0  0  0  0  0  0  0  0  0  0  0  0
    1.4070   -0.3890    0.1720 C   0  0  0  0  0  0  0  0  0  0  0  0
   -0.9080   -0.7410    1.2010 C   0  0  0  0  0  0  0  0  0  0  0  0
    1.7480    3.1100   -0.0030 N   0  0  0  0  0  0  0  0  0  0  0  0
    2.0930    0.7290   -0.1400 N   0  0  0  0  0  0  0  0  0  0  0  0
   -2.0540    1.3690    1.6950 C   0  0  0  0  0  0  0  0  0  0  0  0
    1.8250   -1.6620   -0.0040 N   0  0  0  0  0  0  0  0  0  0  0  0
   -2.0310   -0.0440    1.6950 C   0  0  0  0  0  0  0  0  0  0  0  0
    2.9130    3.5600   -0.5220 C   0  0  0  0  0  0  0  0  0  0  0  0
    3.0080   -2.0750   -0.5260 C   0  0  0  0  0  0  0  0  0  0  0  0
    3.2690    4.8970   -0.6890 C   0  0  0  0  0  0  0  0  0  0  0  0
    3.9430    2.8190   -0.9740 N   0  0  0  0  0  0  0  0  0  0  0  0
    3.4090   -3.3970   -0.6950 C   0  0  0  0  0  0  0  0  0  0  0  0
    4.0120   -1.2980   -0.9770 N   0  0  0  0  0  0  0  0  0  0  0  0
    4.5460    4.9190   -1.2560 C   0  0  0  0  0  0  0  0  0  0  0  0
    2.5880    6.0930   -0.3960 C   0  0  0  0  0  0  0  0  0  0  0  0
    4.9470    3.5950   -1.4250 C   0  0  0  0  0  0  0  0  0  0  0  0
    4.6860   -3.3750   -1.2610 C   0  0  0  0  0  0  0  0  0  0  0  0
    2.7690   -4.6160   -0.4030 C   0  0  0  0  0  0  0  0  0  0  0  0
    5.0420   -2.0400   -1.4280 C   0  0  0  0  0  0  0  0  0  0  0  0
    5.1860    6.1380   -1.5480 C   0  0  0  0  0  0  0  0  0  0  0  0
    3.2200    7.3210   -0.6850 C   0  0  0  0  0  0  0  0  0  0  0  0
    6.1250    3.1850   -1.9450 N   0  0  0  0  0  0  0  0  0  0  0  0
    5.3670   -4.5710   -1.5550 C   0  0  0  0  0  0  0  0  0  0  0  0
    3.4430   -5.8210   -0.6930 C   0  0  0  0  0  0  0  0  0  0  0  0
    6.2110   -1.5870   -1.9500 N   0  0  0  0  0  0  0  0  0  0  0  0
    4.5120    7.3430   -1.2570 C   0  0  0  0  0  0  0  0  0  0  0  0
    6.5450    1.9120   -2.1220 C   0  0  0  0  0  0  0  0  0  0  0  0
    4.7340   -5.7990   -1.2660 C   0  0  0  0  0  0  0  0  0  0  0  0
    6.5850   -0.3000   -2.1240 C   0  0  0  0  0  0  0  0  0  0  0  0
    7.7690    1.5270   -2.6620 C   0  0  0  0  0  0  0  0  0  0  0  0
    5.8620    0.7930   -1.8110 N   0  0  0  0  0  0  0  0  0  0  0  0
    7.7940    0.1310   -2.6640 C   0  0  0  0  0  0  0  0  0  0  0  0
    8.8600    2.2700   -3.1510 C   0  0  0  0  0  0  0  0  0  0  0  0
    8.9110   -0.5720   -3.1540 C   0  0  0  0  0  0  0  0  0  0  0  0
    9.9840    1.5760   -3.6450 C   0  0  0  0  0  0  0  0  0  0  0  0
   10.0100    0.1630   -3.6460 C   0  0  0  0  0  0  0  0  0  0  0  0
   -0.9660    3.1230    1.2010 H   0  0  0  0  0  0  0  0  0  0  0  0
   -0.8890   -1.7630    1.2000 H   0  0  0  0  0  0  0  0  0  0  0  0
   -2.8730    1.8640    2.0540 H   0  0  0  0  0  0  0  0  0  0  0  0
   -2.8340   -0.5650    2.0540 H   0  0  0  0  0  0  0  0  0  0  0  0
    3.9590    1.8510   -0.9750 H   0  0  0  0  0  0  0  0  0  0  0  0
    3.9960   -0.3300   -0.9760 H   0  0  0  0  0  0  0  0  0  0  0  0
    1.6540    6.0740    0.0190 H   0  0  0  0  0  0  0  0  0  0  0  0
    1.8350   -4.6300    0.0120 H   0  0  0  0  0  0  0  0  0  0  0  0
    6.1200    6.1510   -1.9620 H   0  0  0  0  0  0  0  0  0  0  0  0
    2.7410    8.2000   -0.4780 H   0  0  0  0  0  0  0  0  0  0  0  0
    6.3010   -4.5530   -1.9700 H   0  0  0  0  0  0  0  0  0  0  0  0
    2.9930   -6.7160   -0.4880 H   0  0  0  0  0  0  0  0  0  0  0  0
    4.9610    8.2380   -1.4630 H   0  0  0  0  0  0  0  0  0  0  0  0
    5.2140   -6.6780   -1.4730 H   0  0  0  0  0  0  0  0  0  0  0  0
    8.8380    3.2920   -3.1480 H   0  0  0  0  0  0  0  0  0  0  0  0
    8.9260   -1.5940   -3.1540 H   0  0  0  0  0  0  0  0  0  0  0  0
   10.7860    2.0990   -4.0040 H   0  0  0  0  0  0  0  0  0  0  0  0
   10.8300   -0.3300   -4.0070 H   0  0  0  0  0  0  0  0  0  0  0  0
  1  4  1  0  0  0  0
  1  2  1  0  0  0  0
  1  3  2  0  0  0  0
  2  6  1  0  0  0  0
  2  5  2  0  0  0  0
  3  7  1  0  0  0  0
  3  8  1  0  0  0  0
  4  9  2  0  0  0  0
  4 41  1  0  0  0  0
  5  8  1  0  0  0  0
  5 10  1  0  0  0  0
  6 11  2  0  0  0  0
  6 42  1  0  0  0  0
  7 12  1  0  0  0  0
  9 11  1  0  0  0  0
  9 43  1  0  0  0  0
 10 13  1  0  0  0  0
 11 44  1  0  0  0  0
 12 14  2  0  0  0  0
 12 15  1  0  0  0  0
 13 16  2  0  0  0  0
 13 17  1  0  0  0  0
 14 19  1  0  0  0  0
 14 18  1  0  0  0  0
 15 20  1  0  0  0  0
 15 45  1  0  0  0  0
 16 22  1  0  0  0  0
 16 21  1  0  0  0  0
 17 46  1  0  0  0  0
 17 23  1  0  0  0  0
 18 20  2  0  0  0  0
 18 24  1  0  0  0  0
 19 47  1  0  0  0  0
 19 25  2  0  0  0  0
 20 26  1  0  0  0  0
 21 23  2  0  0  0  0
 21 27  1  0  0  0  0
 22 48  1  0  0  0  0
 22 28  2  0  0  0  0
 23 29  1  0  0  0  0
 24 30  2  0  0  0  0
 24 49  1  0  0  0  0
 25 50  1  0  0  0  0
 25 30  1  0  0  0  0
 26 31  2  0  0  0  0
 27 32  2  0  0  0  0
 27 51  1  0  0  0  0
 28 52  1  0  0  0  0
 28 32  1  0  0  0  0
 29 33  2  0  0  0  0
 30 53  1  0  0  0  0
 31 35  1  0  0  0  0
 31 34  1  0  0  0  0
 32 54  1  0  0  0  0
 33 35  1  0  0  0  0
 33 36  1  0  0  0  0
 34 36  2  0  0  0  0
 34 37  1  0  0  0  0
 36 38  1  0  0  0  0
 37 55  1  0  0  0  0
 37 39  2  0  0  0  0
 38 40  2  0  0  0  0
 38 56  1  0  0  0  0
 39 40  1  0  0  0  0
 39 57  1  0  0  0  0
 40 58  1  0  0  0  0
M  END
