decoy-953
 OpenBabel06062114513D

 44 48  0  0  0  0  0  0  0  0999 V2000
   -0.0230    1.4790   -0.6880 C   0  0  0  0  0  0  0  0  0  0  0  0
   -0.0250    0.0570   -0.7500 C   0  0  0  0  0  0  0  0  0  0  0  0
    1.1710    2.1660   -0.9720 C   0  0  0  0  0  0  0  0  0  0  0  0
   -1.2100    2.1870   -0.3630 C   0  0  0  0  0  0  0  0  0  0  0  0
    1.1660   -0.6070   -1.0930 C   0  0  0  0  0  0  0  0  0  0  0  0
   -1.2150   -0.6720   -0.4890 C   0  0  0  0  0  0  0  0  0  0  0  0
    2.4040    1.4880   -0.9870 C   0  0  0  0  0  0  0  0  0  0  0  0
    1.1230    3.3380   -1.3310 O   0  0  0  0  0  0  0  0  0  0  0  0
   -2.2620    1.4450    0.2370 C   0  0  0  0  0  0  0  0  0  0  0  0
    2.4010    0.0660   -1.0500 C   0  0  0  0  0  0  0  0  0  0  0  0
    1.1140   -1.7430   -1.5540 O   0  0  0  0  0  0  0  0  0  0  0  0
   -2.2640    0.0180    0.1740 C   0  0  0  0  0  0  0  0  0  0  0  0
    3.6290    2.2050   -0.9610 C   0  0  0  0  0  0  0  0  0  0  0  0
   -3.3180    2.1460    0.8850 C   0  0  0  0  0  0  0  0  0  0  0  0
    3.6240   -0.6540   -1.0860 C   0  0  0  0  0  0  0  0  0  0  0  0
   -3.3230   -0.7340    0.7580 C   0  0  0  0  0  0  0  0  0  0  0  0
    4.8000    1.4710   -0.6350 C   0  0  0  0  0  0  0  0  0  0  0  0
   -4.4510    1.3920    1.2400 C   0  0  0  0  0  0  0  0  0  0  0  0
    4.7980    0.0440   -0.6970 C   0  0  0  0  0  0  0  0  0  0  0  0
   -4.4540   -0.0090    1.1790 C   0  0  0  0  0  0  0  0  0  0  0  0
    5.9770    2.1810   -0.2650 C   0  0  0  0  0  0  0  0  0  0  0  0
    5.9720   -0.6990   -0.3900 C   0  0  0  0  0  0  0  0  0  0  0  0
    7.1690    1.4350   -0.1960 C   0  0  0  0  0  0  0  0  0  0  0  0
    7.1660    0.0330   -0.2570 C   0  0  0  0  0  0  0  0  0  0  0  0
   -0.9900    3.0180    0.1980 H   0  0  0  0  0  0  0  0  0  0  0  0
   -1.5850   -0.9650   -1.3980 H   0  0  0  0  0  0  0  0  0  0  0  0
    3.5460    3.0340   -0.3630 H   0  0  0  0  0  0  0  0  0  0  0  0
   -2.9420    2.5520    1.7470 H   0  0  0  0  0  0  0  0  0  0  0  0
    3.7630   -0.9470   -2.0580 H   0  0  0  0  0  0  0  0  0  0  0  0
   -2.9490   -1.2150    1.5810 H   0  0  0  0  0  0  0  0  0  0  0  0
   -5.2960    1.8730    1.5650 H   0  0  0  0  0  0  0  0  0  0  0  0
   -5.3000   -0.5140    1.4600 H   0  0  0  0  0  0  0  0  0  0  0  0
    5.8200    2.5850    0.6630 H   0  0  0  0  0  0  0  0  0  0  0  0
    6.1130   -1.4590   -1.0630 H   0  0  0  0  0  0  0  0  0  0  0  0
    8.0630    1.9220   -0.0860 H   0  0  0  0  0  0  0  0  0  0  0  0
    8.0590   -0.4650   -0.1900 H   0  0  0  0  0  0  0  0  0  0  0  0
   -1.5790    2.5600   -1.2430 H   0  0  0  0  0  0  0  0  0  0  0  0
   -0.9980   -1.5500   -0.0030 H   0  0  0  0  0  0  0  0  0  0  0  0
    3.7700    2.5790   -1.9040 H   0  0  0  0  0  0  0  0  0  0  0  0
   -3.6100    2.9600    0.3340 H   0  0  0  0  0  0  0  0  0  0  0  0
    3.5380   -1.5330   -0.5620 H   0  0  0  0  0  0  0  0  0  0  0  0
   -3.6180   -1.4940    0.1380 H   0  0  0  0  0  0  0  0  0  0  0  0
    6.1210    2.9950   -0.8700 H   0  0  0  0  0  0  0  0  0  0  0  0
    5.8130   -1.1820    0.4990 H   0  0  0  0  0  0  0  0  0  0  0  0
  1  4  1  0  0  0  0
  1  2  2  0  0  0  0
  1  3  1  0  0  0  0
  2  6  1  0  0  0  0
  2  5  1  0  0  0  0
  3  7  1  0  0  0  0
  3  8  2  0  0  0  0
  4 25  1  0  0  0  0
  4  9  1  0  0  0  0
  4 37  1  0  0  0  0
  5 10  1  0  0  0  0
  5 11  2  0  0  0  0
  6 38  1  0  0  0  0
  6 12  1  0  0  0  0
  6 26  1  0  0  0  0
  7 13  1  0  0  0  0
  7 10  2  0  0  0  0
  9 14  1  0  0  0  0
  9 12  2  0  0  0  0
 10 15  1  0  0  0  0
 12 16  1  0  0  0  0
 13 17  1  0  0  0  0
 13 27  1  0  0  0  0
 13 39  1  0  0  0  0
 14 18  1  0  0  0  0
 14 28  1  0  0  0  0
 14 40  1  0  0  0  0
 15 19  1  0  0  0  0
 15 41  1  0  0  0  0
 15 29  1  0  0  0  0
 16 20  1  0  0  0  0
 16 30  1  0  0  0  0
 16 42  1  0  0  0  0
 17 21  1  0  0  0  0
 17 19  2  0  0  0  0
 18 31  1  0  0  0  0
 18 20  2  0  0  0  0
 19 22  1  0  0  0  0
 20 32  1  0  0  0  0
 21 23  1  0  0  0  0
 21 33  1  0  0  0  0
 21 43  1  0  0  0  0
 22 24  1  0  0  0  0
 22 44  1  0  0  0  0
 22 34  1  0  0  0  0
 23 35  1  0  0  0  0
 23 24  2  0  0  0  0
 24 36  1  0  0  0  0
M  END
