decoy-227
 OpenBabel06062114513D

 27 28  0  0  0  0  0  0  0  0999 V2000
    0.2670    1.5400    0.1450 C   0  0  0  0  0  0  0  0  0  0  0  0
   -0.0110    0.0130   -0.0880 C   0  0  0  0  0  0  0  0  0  0  0  0
    1.7350    1.5490    0.2210 C   0  0  0  0  0  0  0  0  0  0  0  0
   -0.2350    1.7910    1.6130 C   0  0  0  0  0  0  0  0  0  0  0  0
   -0.3640    2.5020   -0.9060 C   0  0  0  0  0  0  0  0  0  0  0  0
    0.8450   -0.3150    1.1850 C   0  0  0  0  0  0  0  0  0  0  0  0
   -1.5210   -0.4540   -0.0200 C   0  0  0  0  0  0  0  0  0  0  0  0
    0.5350   -0.5680   -1.4520 C   0  0  0  0  0  0  0  0  0  0  0  0
    2.2170    0.3940    0.9430 C   0  0  0  0  0  0  0  0  0  0  0  0
    2.4800    2.3760   -0.2870 O   0  0  0  0  0  0  0  0  0  0  0  0
    0.1220    0.4600    2.3340 C   0  0  0  0  0  0  0  0  0  0  0  0
   -0.0520    4.3660   -0.5050 Br  0  0  0  0  0  0  0  0  0  0  0  0
   -1.7000   -2.3670    0.1960 Br  0  0  0  0  0  0  0  0  0  0  0  0
    3.5150   -0.6820   -0.0050 Br  0  0  0  0  0  0  0  0  0  0  0  0
    0.9500   -1.3820    1.4000 H   0  0  0  0  0  0  0  0  0  0  0  0
    0.2730    2.6410    2.0810 H   0  0  0  0  0  0  0  0  0  0  0  0
   -1.3100    1.9840    1.6520 H   0  0  0  0  0  0  0  0  0  0  0  0
    0.0450    2.2970   -1.8970 H   0  0  0  0  0  0  0  0  0  0  0  0
   -1.4430    2.3500   -0.9480 H   0  0  0  0  0  0  0  0  0  0  0  0
   -2.0810   -0.0020    0.7930 H   0  0  0  0  0  0  0  0  0  0  0  0
   -2.0510   -0.1720   -0.9320 H   0  0  0  0  0  0  0  0  0  0  0  0
    1.4580   -0.0970   -1.7830 H   0  0  0  0  0  0  0  0  0  0  0  0
    0.7190   -1.6390   -1.3570 H   0  0  0  0  0  0  0  0  0  0  0  0
   -0.1770   -0.4150   -2.2650 H   0  0  0  0  0  0  0  0  0  0  0  0
    2.6970    0.7070    1.8740 H   0  0  0  0  0  0  0  0  0  0  0  0
    0.7690    0.6250    3.2000 H   0  0  0  0  0  0  0  0  0  0  0  0
   -0.7670   -0.0720    2.6800 H   0  0  0  0  0  0  0  0  0  0  0  0
  1  2  1  0  0  0  0
  1  3  1  0  0  0  0
  1  4  1  0  0  0  0
  1  5  1  0  0  0  0
  2  7  1  0  0  0  0
  2  6  1  0  0  0  0
  2  8  1  0  0  0  0
  3  9  1  0  0  0  0
  3 10  2  0  0  0  0
  4 17  1  0  0  0  0
  4 16  1  0  0  0  0
  4 11  1  0  0  0  0
  5 12  1  0  0  0  0
  5 18  1  0  0  0  0
  5 19  1  0  0  0  0
  6  9  1  0  0  0  0
  6 15  1  0  0  0  0
  6 11  1  0  0  0  0
  7 13  1  0  0  0  0
  7 20  1  0  0  0  0
  7 21  1  0  0  0  0
  8 23  1  0  0  0  0
  8 22  1  0  0  0  0
  8 24  1  0  0  0  0
  9 25  1  0  0  0  0
  9 14  1  0  0  0  0
 11 27  1  0  0  0  0
 11 26  1  0  0  0  0
M  END
