decoy-868
 OpenBabel06062114513D

 29 31  0  0  0  0  0  0  0  0999 V2000
    0.0570    1.4390   -0.0810 C   0  0  0  0  0  0  0  0  0  0  0  0
    0.0830    0.0080   -0.0830 C   0  0  0  0  0  0  0  0  0  0  0  0
    1.2870    2.1190   -0.1600 C   0  0  0  0  0  0  0  0  0  0  0  0
   -1.1930    2.1240   -0.0450 C   0  0  0  0  0  0  0  0  0  0  0  0
    1.3210   -0.6480   -0.1750 C   0  0  0  0  0  0  0  0  0  0  0  0
   -1.1390   -0.7080   -0.0420 C   0  0  0  0  0  0  0  0  0  0  0  0
    2.4080    1.4640   -0.6760 C   0  0  0  0  0  0  0  0  0  0  0  0
    1.4760    3.1030    0.5440 O   0  0  0  0  0  0  0  0  0  0  0  0
   -2.4090    1.3940    0.0400 C   0  0  0  0  0  0  0  0  0  0  0  0
   -1.2230    3.4730   -0.1250 N   0  0  0  0  0  0  0  0  0  0  0  0
    2.4250    0.0400   -0.6830 C   0  0  0  0  0  0  0  0  0  0  0  0
    1.5300   -1.6430    0.5070 O   0  0  0  0  0  0  0  0  0  0  0  0
   -2.3560   -0.0150    0.0350 C   0  0  0  0  0  0  0  0  0  0  0  0
   -1.2470   -2.5700   -0.1390 Br  0  0  0  0  0  0  0  0  0  0  0  0
    3.5130    2.1760   -1.1990 C   0  0  0  0  0  0  0  0  0  0  0  0
   -3.7620    2.0120    0.1150 C   0  0  0  0  0  0  0  0  0  0  0  0
    3.5470   -0.6390   -1.2140 C   0  0  0  0  0  0  0  0  0  0  0  0
    4.6230    1.4870   -1.7190 C   0  0  0  0  0  0  0  0  0  0  0  0
    4.6400    0.0820   -1.7260 C   0  0  0  0  0  0  0  0  0  0  0  0
   -0.4000    3.9760   -0.2150 H   0  0  0  0  0  0  0  0  0  0  0  0
   -2.0630    3.9530   -0.1200 H   0  0  0  0  0  0  0  0  0  0  0  0
   -3.2250   -0.5560    0.0710 H   0  0  0  0  0  0  0  0  0  0  0  0
    3.5150    3.1990   -1.2110 H   0  0  0  0  0  0  0  0  0  0  0  0
   -3.7470    3.0990    0.1430 H   0  0  0  0  0  0  0  0  0  0  0  0
   -4.3500    1.7090   -0.7540 H   0  0  0  0  0  0  0  0  0  0  0  0
   -4.2710    1.6690    1.0180 H   0  0  0  0  0  0  0  0  0  0  0  0
    3.5750   -1.6620   -1.2370 H   0  0  0  0  0  0  0  0  0  0  0  0
    5.4170    2.0090   -2.0960 H   0  0  0  0  0  0  0  0  0  0  0  0
    5.4470   -0.4160   -2.1090 H   0  0  0  0  0  0  0  0  0  0  0  0
  1  4  2  0  0  0  0
  1  2  1  0  0  0  0
  1  3  1  0  0  0  0
  2  6  2  0  0  0  0
  2  5  1  0  0  0  0
  3  8  2  0  0  0  0
  3  7  1  0  0  0  0
  4  9  1  0  0  0  0
  4 10  1  0  0  0  0
  5 12  2  0  0  0  0
  5 11  1  0  0  0  0
  6 13  1  0  0  0  0
  6 14  1  0  0  0  0
  7 11  2  0  0  0  0
  7 15  1  0  0  0  0
  9 16  1  0  0  0  0
  9 13  2  0  0  0  0
 10 21  1  0  0  0  0
 10 20  1  0  0  0  0
 11 17  1  0  0  0  0
 13 22  1  0  0  0  0
 15 18  2  0  0  0  0
 15 23  1  0  0  0  0
 16 24  1  0  0  0  0
 16 26  1  0  0  0  0
 16 25  1  0  0  0  0
 17 19  2  0  0  0  0
 17 27  1  0  0  0  0
 18 19  1  0  0  0  0
 18 28  1  0  0  0  0
 19 29  1  0  0  0  0
M  END
