
  ACD/Labs06062116143D

 46 51  0  0  0  0  0  0  0  0  1 V2000
   20.1830   -7.3516   -0.4953 C   0  0  0  0  0  0  0  0  0  0  0  0
   20.8840   -8.5006   -0.6627 C   0  0  0  0  0  0  0  0  0  0  0  0
   20.7850   -6.2542    0.1713 C   0  0  0  0  0  0  0  0  0  0  0  0
   18.7677   -7.4131   -0.5182 C   0  0  0  0  0  0  0  0  0  0  0  0
   21.1788   -9.3105    0.4632 C   0  0  0  0  0  0  0  0  0  0  0  0
   21.7156   -8.6252   -1.8023 C   0  0  0  0  0  0  0  0  0  0  0  0
   20.0269   -5.5087    1.1249 C   0  0  0  0  0  0  0  0  0  0  0  0
   22.1193   -5.8485   -0.0936 C   0  0  0  0  0  0  0  0  0  0  0  0
   18.0132   -6.6485    0.4243 C   0  0  0  0  0  0  0  0  0  0  0  0
   18.0638   -8.2279   -1.4439 C   0  0  0  0  0  0  0  0  0  0  0  0
   22.4811   -9.8839    0.5943 C   0  0  0  0  0  0  0  0  0  0  0  0
   20.2122   -9.6000    1.4618 C   0  0  0  0  0  0  0  0  0  0  0  0
   23.0088   -9.2175   -1.6680 C   0  0  0  0  0  0  0  0  0  0  0  0
   21.3148   -8.1631   -3.0831 C   0  0  0  0  0  0  0  0  0  0  0  0
   18.6899   -5.8496    1.3491 C   0  0  0  0  0  0  0  0  0  0  0  0
   20.6237   -4.4128    1.7956 C   0  0  0  0  0  0  0  0  0  0  0  0
   22.6998   -4.7640    0.5843 C   0  0  0  0  0  0  0  0  0  0  0  0
   16.5973   -6.7036    0.4003 C   0  0  0  0  0  0  0  0  0  0  0  0
   16.6597   -8.2776   -1.4496 C   0  0  0  0  0  0  0  0  0  0  0  0
   23.4254   -9.6682   -0.4124 C   0  0  0  0  0  0  0  0  0  0  0  0
   22.7825  -10.6930    1.7182 C   0  0  0  0  0  0  0  0  0  0  0  0
   20.5278  -10.3993    2.5727 C   0  0  0  0  0  0  0  0  0  0  0  0
   23.8428   -9.3483   -2.8067 C   0  0  0  0  0  0  0  0  0  0  0  0
   22.1565   -8.2926   -4.2008 C   0  0  0  0  0  0  0  0  0  0  0  0
   18.1621   -5.5777    2.4217 O   0  0  0  0  0  0  0  0  0  0  0  0
   21.9536   -4.0482    1.5320 C   0  0  0  0  0  0  0  0  0  0  0  0
   15.9268   -7.5131   -0.5304 C   0  0  0  0  0  0  0  0  0  0  0  0
   24.6206   -9.7277   -0.1507 O   0  0  0  0  0  0  0  0  0  0  0  0
   21.8147  -10.9419    2.7038 C   0  0  0  0  0  0  0  0  0  0  0  0
   23.4183   -8.8882   -4.0628 C   0  0  0  0  0  0  0  0  0  0  0  0
   22.6891   -6.3324   -0.7882 H   0  0  0  0  0  0  0  0  0  0  0  0
   18.5642   -8.8046   -2.1213 H   0  0  0  0  0  0  0  0  0  0  0  0
   19.2601   -9.2386    1.3932 H   0  0  0  0  0  0  0  0  0  0  0  0
   20.4063   -7.7157   -3.2181 H   0  0  0  0  0  0  0  0  0  0  0  0
   20.0931   -3.8618    2.4753 H   0  0  0  0  0  0  0  0  0  0  0  0
   23.6640   -4.4900    0.3831 H   0  0  0  0  0  0  0  0  0  0  0  0
   16.0403   -6.1535    1.0583 H   0  0  0  0  0  0  0  0  0  0  0  0
   16.1708   -8.8709   -2.1239 H   0  0  0  0  0  0  0  0  0  0  0  0
   23.7067  -11.1189    1.8246 H   0  0  0  0  0  0  0  0  0  0  0  0
   19.8184  -10.5913    3.2844 H   0  0  0  0  0  0  0  0  0  0  0  0
   24.7668   -9.7822   -2.7331 H   0  0  0  0  0  0  0  0  0  0  0  0
   21.8492   -7.9528   -5.1149 H   0  0  0  0  0  0  0  0  0  0  0  0
   22.3742   -3.2552    2.0207 H   0  0  0  0  0  0  0  0  0  0  0  0
   14.9044   -7.5472   -0.5363 H   0  0  0  0  0  0  0  0  0  0  0  0
   22.0424  -11.5286    3.5095 H   0  0  0  0  0  0  0  0  0  0  0  0
   24.0291   -8.9856   -4.8780 H   0  0  0  0  0  0  0  0  0  0  0  0
  1  3  1  0  0  0  0
  1  2  2  0  0  0  0
  1  4  1  0  0  0  0
  2  5  1  0  0  0  0
  2  6  1  0  0  0  0
  3  7  2  0  0  0  0
  3  8  1  0  0  0  0
  4  9  2  0  0  0  0
  4 10  1  0  0  0  0
  5 12  2  0  0  0  0
  5 11  1  0  0  0  0
  6 13  2  0  0  0  0
  6 14  1  0  0  0  0
  7 16  1  0  0  0  0
  7 15  1  0  0  0  0
  8 17  2  0  0  0  0
  8 31  1  0  0  0  0
  9 15  1  0  0  0  0
  9 18  1  0  0  0  0
 10 19  2  0  0  0  0
 10 32  1  0  0  0  0
 11 21  2  0  0  0  0
 11 20  1  0  0  0  0
 12 22  1  0  0  0  0
 12 33  1  0  0  0  0
 13 20  1  0  0  0  0
 13 23  1  0  0  0  0
 14 24  2  0  0  0  0
 14 34  1  0  0  0  0
 15 25  2  0  0  0  0
 16 35  1  0  0  0  0
 16 26  2  0  0  0  0
 17 26  1  0  0  0  0
 17 36  1  0  0  0  0
 18 37  1  0  0  0  0
 18 27  2  0  0  0  0
 19 27  1  0  0  0  0
 19 38  1  0  0  0  0
 20 28  2  0  0  0  0
 21 29  1  0  0  0  0
 21 39  1  0  0  0  0
 22 29  2  0  0  0  0
 22 40  1  0  0  0  0
 23 41  1  0  0  0  0
 23 30  2  0  0  0  0
 24 30  1  0  0  0  0
 24 42  1  0  0  0  0
 26 43  1  0  0  0  0
 27 44  1  0  0  0  0
 29 45  1  0  0  0  0
 30 46  1  0  0  0  0
M  END
