decoy-177
 OpenBabel06062114503D

 46 49  0  0  0  0  0  0  0  0999 V2000
    0.9370    0.7720    0.1960 C   0  0  0  0  0  0  0  0  0  0  0  0
   -0.3940    0.5750   -0.2640 C   0  0  0  0  0  0  0  0  0  0  0  0
    1.1820    1.6020    1.3210 C   0  0  0  0  0  0  0  0  0  0  0  0
    1.9950    0.1650   -0.4450 N   0  0  0  0  0  0  0  0  0  0  0  0
   -1.5000    1.1910    0.3840 C   0  0  0  0  0  0  0  0  0  0  0  0
   -0.6220   -0.3440   -1.2630 O   0  0  0  0  0  0  0  0  0  0  0  0
    2.5100    1.7590    1.7470 C   0  0  0  0  0  0  0  0  0  0  0  0
    0.0870    2.2200    1.9620 C   0  0  0  0  0  0  0  0  0  0  0  0
    3.2660    0.3860   -0.0090 C   0  0  0  0  0  0  0  0  0  0  0  0
    1.7760   -0.7210   -1.5810 C   0  0  0  0  0  0  0  0  0  0  0  0
   -2.7900    1.0060   -0.0580 N   0  0  0  0  0  0  0  0  0  0  0  0
   -1.2270    2.0180    1.5060 C   0  0  0  0  0  0  0  0  0  0  0  0
    0.4100   -0.4180   -2.2600 C   0  0  0  0  0  0  0  0  0  0  0  0
    3.5480    1.1700    1.0560 C   0  0  0  0  0  0  0  0  0  0  0  0
    2.7320    2.3360    2.8070 O   0  0  0  0  0  0  0  0  0  0  0  0
    1.8680   -2.2060   -1.1350 C   0  0  0  0  0  0  0  0  0  0  0  0
   -3.1570    1.0920   -1.4590 C   0  0  0  0  0  0  0  0  0  0  0  0
   -3.8870    0.7290    0.8510 C   0  0  0  0  0  0  0  0  0  0  0  0
   -2.1690    2.7020    2.1030 F   0  0  0  0  0  0  0  0  0  0  0  0
    4.8740    1.3800    1.4160 C   0  0  0  0  0  0  0  0  0  0  0  0
   -3.8730   -0.2030   -1.9180 C   0  0  0  0  0  0  0  0  0  0  0  0
   -4.6270   -0.5640    0.4170 C   0  0  0  0  0  0  0  0  0  0  0  0
    5.7460    0.3500    1.5060 O   0  0  0  0  0  0  0  0  0  0  0  0
    5.3390    2.6270    1.6550 O   0  0  0  0  0  0  0  0  0  0  0  0
   -5.0330   -0.5000   -1.0210 C   0  0  0  0  0  0  0  0  0  0  0  0
   -5.7920   -1.7060   -1.4540 C   0  0  0  0  0  0  0  0  0  0  0  0
    2.5440   -0.5500   -2.3450 H   0  0  0  0  0  0  0  0  0  0  0  0
    0.2410    2.8380    2.7640 H   0  0  0  0  0  0  0  0  0  0  0  0
    4.0200   -0.0310   -0.5120 H   0  0  0  0  0  0  0  0  0  0  0  0
    0.1510   -1.1950   -2.9820 H   0  0  0  0  0  0  0  0  0  0  0  0
    0.4640    0.5320   -2.8010 H   0  0  0  0  0  0  0  0  0  0  0  0
    2.8510   -2.4140   -0.7070 H   0  0  0  0  0  0  0  0  0  0  0  0
    1.7240   -2.8710   -1.9900 H   0  0  0  0  0  0  0  0  0  0  0  0
    1.1080   -2.4290   -0.3850 H   0  0  0  0  0  0  0  0  0  0  0  0
   -3.8460    1.9320   -1.5830 H   0  0  0  0  0  0  0  0  0  0  0  0
   -2.3100    1.2970   -2.1180 H   0  0  0  0  0  0  0  0  0  0  0  0
   -3.5530    0.5800    1.8810 H   0  0  0  0  0  0  0  0  0  0  0  0
   -4.5880    1.5690    0.8430 H   0  0  0  0  0  0  0  0  0  0  0  0
   -4.2230   -0.0590   -2.9440 H   0  0  0  0  0  0  0  0  0  0  0  0
   -3.1620   -1.0350   -1.9140 H   0  0  0  0  0  0  0  0  0  0  0  0
   -3.9720   -1.4240    0.5900 H   0  0  0  0  0  0  0  0  0  0  0  0
   -5.5130   -0.6800    1.0470 H   0  0  0  0  0  0  0  0  0  0  0  0
   -5.6750    0.2910   -1.1070 H   0  0  0  0  0  0  0  0  0  0  0  0
   -6.1380   -1.5870   -2.4820 H   0  0  0  0  0  0  0  0  0  0  0  0
   -6.6740   -1.8440   -0.8250 H   0  0  0  0  0  0  0  0  0  0  0  0
   -5.1750   -2.6070   -1.3940 H   0  0  0  0  0  0  0  0  0  0  0  0
  1  3  2  0  0  0  0
  1  2  1  0  0  0  0
  1  4  1  0  0  0  0
  2  5  2  0  0  0  0
  2  6  1  0  0  0  0
  3  7  1  0  0  0  0
  3  8  1  0  0  0  0
  4  9  1  0  0  0  0
  4 10  1  0  0  0  0
  5 12  1  0  0  0  0
  5 11  1  0  0  0  0
  6 13  1  0  0  0  0
  7 15  2  0  0  0  0
  7 14  1  0  0  0  0
  8 28  1  0  0  0  0
  8 12  2  0  0  0  0
  9 14  2  0  0  0  0
  9 29  1  0  0  0  0
 10 27  1  0  0  0  0
 10 16  1  0  0  0  0
 10 13  1  0  0  0  0
 11 18  1  0  0  0  0
 11 17  1  0  0  0  0
 12 19  1  0  0  0  0
 13 30  1  0  0  0  0
 13 31  1  0  0  0  0
 14 20  1  0  0  0  0
 16 32  1  0  0  0  0
 16 34  1  0  0  0  0
 16 33  1  0  0  0  0
 17 21  1  0  0  0  0
 17 35  1  0  0  0  0
 17 36  1  0  0  0  0
 18 37  1  0  0  0  0
 18 22  1  0  0  0  0
 18 38  1  0  0  0  0
 20 23  2  0  0  0  0
 20 24  1  0  0  0  0
 21 40  1  0  0  0  0
 21 25  1  0  0  0  0
 21 39  1  0  0  0  0
 22 41  1  0  0  0  0
 22 42  1  0  0  0  0
 22 25  1  0  0  0  0
 25 26  1  0  0  0  0
 25 43  1  0  0  0  0
 26 46  1  0  0  0  0
 26 45  1  0  0  0  0
 26 44  1  0  0  0  0
M  END
