decoy-536
 OpenBabel06062114513D

 38 39  0  0  0  0  0  0  0  0999 V2000
    0.7510    0.2040    1.0200 C   0  0  0  0  0  0  0  0  0  0  0  0
   -0.1390   -0.8370    0.9630 C   0  0  0  0  0  0  0  0  0  0  0  0
    1.4670    0.5020   -0.1370 C   0  0  0  0  0  0  0  0  0  0  0  0
    0.9170    0.8950    2.1700 C   0  0  0  0  0  0  0  0  0  0  0  0
   -1.3880   -0.5860    0.4000 C   0  0  0  0  0  0  0  0  0  0  0  0
    0.2020   -2.0520    1.4490 C   0  0  0  0  0  0  0  0  0  0  0  0
    2.6610   -0.1910   -0.4410 C   0  0  0  0  0  0  0  0  0  0  0  0
    1.0070    1.5000   -1.0270 C   0  0  0  0  0  0  0  0  0  0  0  0
    1.8350    2.0030    2.3530 C   0  0  0  0  0  0  0  0  0  0  0  0
   -2.4330   -0.0460    1.1840 C   0  0  0  0  0  0  0  0  0  0  0  0
   -1.6270   -0.8630   -0.9660 C   0  0  0  0  0  0  0  0  0  0  0  0
   -0.6580   -3.2210    1.4560 C   0  0  0  0  0  0  0  0  0  0  0  0
    3.3800    0.1070   -1.6130 C   0  0  0  0  0  0  0  0  0  0  0  0
    1.7260    1.7960   -2.1990 C   0  0  0  0  0  0  0  0  0  0  0  0
   -3.6920    0.2130    0.6120 C   0  0  0  0  0  0  0  0  0  0  0  0
   -2.8860   -0.6020   -1.5360 C   0  0  0  0  0  0  0  0  0  0  0  0
    2.9140    1.1020   -2.4960 C   0  0  0  0  0  0  0  0  0  0  0  0
   -3.9220   -0.0640   -0.7500 C   0  0  0  0  0  0  0  0  0  0  0  0
    3.5950    1.4000   -3.6300 O   0  0  0  0  0  0  0  0  0  0  0  0
   -5.1300    0.1820   -1.3160 O   0  0  0  0  0  0  0  0  0  0  0  0
    0.3770    0.6330    2.9660 H   0  0  0  0  0  0  0  0  0  0  0  0
    1.1110   -2.1700    1.8420 H   0  0  0  0  0  0  0  0  0  0  0  0
    3.0160   -0.9160    0.1890 H   0  0  0  0  0  0  0  0  0  0  0  0
    0.1440    2.0160   -0.8290 H   0  0  0  0  0  0  0  0  0  0  0  0
    2.8590    1.6800    2.1580 H   0  0  0  0  0  0  0  0  0  0  0  0
    1.7840    2.3790    3.3770 H   0  0  0  0  0  0  0  0  0  0  0  0
    1.5810    2.8200    1.6760 H   0  0  0  0  0  0  0  0  0  0  0  0
   -2.2860    0.1610    2.1760 H   0  0  0  0  0  0  0  0  0  0  0  0
   -0.8850   -1.2530   -1.5550 H   0  0  0  0  0  0  0  0  0  0  0  0
   -1.5650   -3.0170    2.0270 H   0  0  0  0  0  0  0  0  0  0  0  0
   -0.1460   -4.0700    1.9140 H   0  0  0  0  0  0  0  0  0  0  0  0
   -0.9290   -3.4950    0.4350 H   0  0  0  0  0  0  0  0  0  0  0  0
    4.2420   -0.4010   -1.8220 H   0  0  0  0  0  0  0  0  0  0  0  0
    1.3830    2.5190   -2.8360 H   0  0  0  0  0  0  0  0  0  0  0  0
   -4.4400    0.6030    1.1900 H   0  0  0  0  0  0  0  0  0  0  0  0
   -3.0470   -0.8050   -2.5260 H   0  0  0  0  0  0  0  0  0  0  0  0
    4.3750    0.8070   -3.6370 H   0  0  0  0  0  0  0  0  0  0  0  0
   -5.6910    0.5480   -0.6010 H   0  0  0  0  0  0  0  0  0  0  0  0
  1  4  2  0  0  0  0
  1  2  1  0  0  0  0
  1  3  1  0  0  0  0
  2  6  2  0  0  0  0
  2  5  1  0  0  0  0
  3  7  2  0  0  0  0
  3  8  1  0  0  0  0
  4  9  1  0  0  0  0
  4 21  1  0  0  0  0
  5 10  2  0  0  0  0
  5 11  1  0  0  0  0
  6 12  1  0  0  0  0
  6 22  1  0  0  0  0
  7 23  1  0  0  0  0
  7 13  1  0  0  0  0
  8 24  1  0  0  0  0
  8 14  2  0  0  0  0
  9 26  1  0  0  0  0
  9 25  1  0  0  0  0
  9 27  1  0  0  0  0
 10 28  1  0  0  0  0
 10 15  1  0  0  0  0
 11 16  2  0  0  0  0
 11 29  1  0  0  0  0
 12 31  1  0  0  0  0
 12 30  1  0  0  0  0
 12 32  1  0  0  0  0
 13 17  2  0  0  0  0
 13 33  1  0  0  0  0
 14 17  1  0  0  0  0
 14 34  1  0  0  0  0
 15 35  1  0  0  0  0
 15 18  2  0  0  0  0
 16 18  1  0  0  0  0
 16 36  1  0  0  0  0
 17 19  1  0  0  0  0
 18 20  1  0  0  0  0
 19 37  1  0  0  0  0
 20 38  1  0  0  0  0
M  END
