decoy-1057
 OpenBabel06062114513D

 34 36  0  0  0  0  0  0  0  0999 V2000
   -0.0170    1.3280    0.0050 N   0  0  0  0  0  0  0  0  0  0  0  0
    0.0190   -0.0560   -0.0050 C   0  0  0  0  0  0  0  0  0  0  0  0
    1.1230    2.1010    0.0200 C   0  0  0  0  0  0  0  0  0  0  0  0
   -1.1960    2.0420    0.0000 C   0  0  0  0  0  0  0  0  0  0  0  0
    1.2350   -0.7770   -0.1780 C   0  0  0  0  0  0  0  0  0  0  0  0
   -1.1590   -0.8410    0.1570 C   0  0  0  0  0  0  0  0  0  0  0  0
    1.5200    2.8320   -1.1240 C   0  0  0  0  0  0  0  0  0  0  0  0
    1.9170    2.1780    1.1890 C   0  0  0  0  0  0  0  0  0  0  0  0
   -1.9920    2.0940   -1.1670 C   0  0  0  0  0  0  0  0  0  0  0  0
   -1.6290    2.7350    1.1550 C   0  0  0  0  0  0  0  0  0  0  0  0
    1.2740   -2.1830   -0.1890 C   0  0  0  0  0  0  0  0  0  0  0  0
   -1.1260   -2.2480    0.1480 C   0  0  0  0  0  0  0  0  0  0  0  0
    2.6850    3.6210   -1.1000 C   0  0  0  0  0  0  0  0  0  0  0  0
    3.0810    2.9670    1.2120 C   0  0  0  0  0  0  0  0  0  0  0  0
   -3.1960    2.8230   -1.1800 C   0  0  0  0  0  0  0  0  0  0  0  0
   -2.8330    3.4630    1.1420 C   0  0  0  0  0  0  0  0  0  0  0  0
    0.0920   -2.9220   -0.0260 C   0  0  0  0  0  0  0  0  0  0  0  0
    3.4670    3.6890    0.0680 C   0  0  0  0  0  0  0  0  0  0  0  0
   -3.6170    3.5080   -0.0250 C   0  0  0  0  0  0  0  0  0  0  0  0
    0.1400   -4.7810   -0.0390 Br  0  0  0  0  0  0  0  0  0  0  0  0
    5.0070    4.7320    0.0990 Br  0  0  0  0  0  0  0  0  0  0  0  0
   -5.2090    4.4700   -0.0420 Br  0  0  0  0  0  0  0  0  0  0  0  0
    2.1190   -0.2850   -0.3160 H   0  0  0  0  0  0  0  0  0  0  0  0
   -2.0670   -0.3970    0.3020 H   0  0  0  0  0  0  0  0  0  0  0  0
    0.9640    2.7870   -1.9810 H   0  0  0  0  0  0  0  0  0  0  0  0
    1.6460    1.6590    2.0280 H   0  0  0  0  0  0  0  0  0  0  0  0
   -1.6950    1.6030   -2.0140 H   0  0  0  0  0  0  0  0  0  0  0  0
   -1.0710    2.7060    2.0110 H   0  0  0  0  0  0  0  0  0  0  0  0
    2.1650   -2.6680   -0.3200 H   0  0  0  0  0  0  0  0  0  0  0  0
   -1.9910   -2.7790    0.2710 H   0  0  0  0  0  0  0  0  0  0  0  0
    2.9630    4.1430   -1.9340 H   0  0  0  0  0  0  0  0  0  0  0  0
    3.6460    3.0150    2.0630 H   0  0  0  0  0  0  0  0  0  0  0  0
   -3.7630    2.8540   -2.0300 H   0  0  0  0  0  0  0  0  0  0  0  0
   -3.1370    3.9580    1.9830 H   0  0  0  0  0  0  0  0  0  0  0  0
  1  3  1  0  0  0  0
  1  2  1  0  0  0  0
  1  4  1  0  0  0  0
  2  6  2  0  0  0  0
  2  5  1  0  0  0  0
  3  8  2  0  0  0  0
  3  7  1  0  0  0  0
  4 10  2  0  0  0  0
  4  9  1  0  0  0  0
  5 11  2  0  0  0  0
  5 23  1  0  0  0  0
  6 24  1  0  0  0  0
  6 12  1  0  0  0  0
  7 13  2  0  0  0  0
  7 25  1  0  0  0  0
  8 14  1  0  0  0  0
  8 26  1  0  0  0  0
  9 15  2  0  0  0  0
  9 27  1  0  0  0  0
 10 28  1  0  0  0  0
 10 16  1  0  0  0  0
 11 17  1  0  0  0  0
 11 29  1  0  0  0  0
 12 30  1  0  0  0  0
 12 17  2  0  0  0  0
 13 18  1  0  0  0  0
 13 31  1  0  0  0  0
 14 32  1  0  0  0  0
 14 18  2  0  0  0  0
 15 19  1  0  0  0  0
 15 33  1  0  0  0  0
 16 34  1  0  0  0  0
 16 19  2  0  0  0  0
 17 20  1  0  0  0  0
 18 21  1  0  0  0  0
 19 22  1  0  0  0  0
M  END
