decoy-734
 OpenBabel06062114513D

 46 48  0  0  0  0  0  0  0  0999 V2000
   -0.1540    1.1810    0.1870 N   0  0  0  0  0  0  0  0  0  0  0  0
    0.0390   -0.1670    0.0600 C   0  0  0  0  0  0  0  0  0  0  0  0
    0.9470    2.0320    0.1370 C   0  0  0  0  0  0  0  0  0  0  0  0
   -1.5180    1.6980    0.2380 C   0  0  0  0  0  0  0  0  0  0  0  0
    0.7800   -0.8960    1.0260 C   0  0  0  0  0  0  0  0  0  0  0  0
   -0.5500   -0.8670   -1.0220 C   0  0  0  0  0  0  0  0  0  0  0  0
    2.1180    1.8910    0.9500 C   0  0  0  0  0  0  0  0  0  0  0  0
    0.9270    3.0820   -0.8210 C   0  0  0  0  0  0  0  0  0  0  0  0
   -1.7620    2.6250    1.4620 C   0  0  0  0  0  0  0  0  0  0  0  0
    1.2420   -0.2090    2.2570 C   0  0  0  0  0  0  0  0  0  0  0  0
    0.9670   -2.2880    0.8620 C   0  0  0  0  0  0  0  0  0  0  0  0
   -0.3570   -2.2500   -1.1780 C   0  0  0  0  0  0  0  0  0  0  0  0
    2.3530    0.8240    1.9690 C   0  0  0  0  0  0  0  0  0  0  0  0
    3.1820    2.8180    0.7980 C   0  0  0  0  0  0  0  0  0  0  0  0
    1.9900    3.9880   -0.9550 C   0  0  0  0  0  0  0  0  0  0  0  0
   -3.2180    3.1610    1.5420 C   0  0  0  0  0  0  0  0  0  0  0  0
    0.4100   -2.9600   -0.2400 C   0  0  0  0  0  0  0  0  0  0  0  0
    3.1190    3.8600   -0.1380 C   0  0  0  0  0  0  0  0  0  0  0  0
   -3.5300    3.8980    2.8120 C   0  0  0  0  0  0  0  0  0  0  0  0
   -2.8140    5.2020    2.9500 C   0  0  0  0  0  0  0  0  0  0  0  0
   -5.0000    4.0700    3.0100 C   0  0  0  0  0  0  0  0  0  0  0  0
   -1.7580    2.2370   -0.6800 H   0  0  0  0  0  0  0  0  0  0  0  0
   -2.2430    0.8800    0.3100 H   0  0  0  0  0  0  0  0  0  0  0  0
   -1.0970   -0.3640   -1.7250 H   0  0  0  0  0  0  0  0  0  0  0  0
    0.1390    3.1910   -1.4610 H   0  0  0  0  0  0  0  0  0  0  0  0
   -1.5400    2.0690    2.3760 H   0  0  0  0  0  0  0  0  0  0  0  0
   -1.0740    3.4690    1.4010 H   0  0  0  0  0  0  0  0  0  0  0  0
    0.3930    0.2900    2.7320 H   0  0  0  0  0  0  0  0  0  0  0  0
    1.6290   -0.9280    2.9860 H   0  0  0  0  0  0  0  0  0  0  0  0
    1.4950   -2.8280    1.5520 H   0  0  0  0  0  0  0  0  0  0  0  0
   -0.7720   -2.7390   -1.9740 H   0  0  0  0  0  0  0  0  0  0  0  0
    3.2450    0.2650    1.6660 H   0  0  0  0  0  0  0  0  0  0  0  0
    2.5820    1.3110    2.9220 H   0  0  0  0  0  0  0  0  0  0  0  0
    4.0270    2.7380    1.3710 H   0  0  0  0  0  0  0  0  0  0  0  0
    1.9450    4.7350   -1.6520 H   0  0  0  0  0  0  0  0  0  0  0  0
   -3.4150    3.8010    0.6760 H   0  0  0  0  0  0  0  0  0  0  0  0
   -3.8800    2.2940    1.4650 H   0  0  0  0  0  0  0  0  0  0  0  0
    0.5480   -3.9670   -0.3500 H   0  0  0  0  0  0  0  0  0  0  0  0
    3.8980    4.5150   -0.2330 H   0  0  0  0  0  0  0  0  0  0  0  0
   -3.0850    5.6940    3.8870 H   0  0  0  0  0  0  0  0  0  0  0  0
   -1.7350    5.0500    2.9780 H   0  0  0  0  0  0  0  0  0  0  0  0
   -3.0530    5.8750    2.1230 H   0  0  0  0  0  0  0  0  0  0  0  0
   -5.5010    3.1000    3.0130 H   0  0  0  0  0  0  0  0  0  0  0  0
   -5.2070    4.5400    3.9730 H   0  0  0  0  0  0  0  0  0  0  0  0
   -5.4360    4.6860    2.2190 H   0  0  0  0  0  0  0  0  0  0  0  0
   -3.2060    3.3050    3.5790 H   0  0  0  0  0  0  0  0  0  0  0  0
  1  4  1  0  0  0  0
  1  2  1  0  0  0  0
  1  3  1  0  0  0  0
  2  5  2  0  0  0  0
  2  6  1  0  0  0  0
  3  7  2  0  0  0  0
  3  8  1  0  0  0  0
  4 23  1  0  0  0  0
  4  9  1  0  0  0  0
  4 22  1  0  0  0  0
  5 10  1  0  0  0  0
  5 11  1  0  0  0  0
  6 12  2  0  0  0  0
  6 24  1  0  0  0  0
  7 13  1  0  0  0  0
  7 14  1  0  0  0  0
  8 15  2  0  0  0  0
  8 25  1  0  0  0  0
  9 16  1  0  0  0  0
  9 26  1  0  0  0  0
  9 27  1  0  0  0  0
 10 28  1  0  0  0  0
 10 29  1  0  0  0  0
 10 13  1  0  0  0  0
 11 30  1  0  0  0  0
 11 17  2  0  0  0  0
 12 17  1  0  0  0  0
 12 31  1  0  0  0  0
 13 33  1  0  0  0  0
 13 32  1  0  0  0  0
 14 34  1  0  0  0  0
 14 18  2  0  0  0  0
 15 18  1  0  0  0  0
 15 35  1  0  0  0  0
 16 19  1  0  0  0  0
 16 36  1  0  0  0  0
 16 37  1  0  0  0  0
 17 38  1  0  0  0  0
 18 39  1  0  0  0  0
 19 20  1  0  0  0  0
 19 21  1  0  0  0  0
 19 46  1  0  0  0  0
 20 41  1  0  0  0  0
 20 40  1  0  0  0  0
 20 42  1  0  0  0  0
 21 43  1  0  0  0  0
 21 44  1  0  0  0  0
 21 45  1  0  0  0  0
M  END
