decoy-191
 OpenBabel06062114503D

 71 70  0  0  0  0  0  0  0  0999 V2000
   -0.0090    1.5170    0.0090 C   0  0  0  0  0  0  0  0  0  0  0  0
   -0.0300   -0.0340    0.0010 C   0  0  0  0  0  0  0  0  0  0  0  0
    1.4320    2.0950   -0.0010 C   0  0  0  0  0  0  0  0  0  0  0  0
   -1.4700   -0.6120    0.0120 C   0  0  0  0  0  0  0  0  0  0  0  0
    1.4530    3.6460    0.0070 C   0  0  0  0  0  0  0  0  0  0  0  0
   -1.4910   -2.1630    0.0030 C   0  0  0  0  0  0  0  0  0  0  0  0
    2.8930    4.2230   -0.0040 C   0  0  0  0  0  0  0  0  0  0  0  0
   -2.9320   -2.7400    0.0140 C   0  0  0  0  0  0  0  0  0  0  0  0
    2.9150    5.7750    0.0040 C   0  0  0  0  0  0  0  0  0  0  0  0
   -2.9530   -4.2920    0.0060 C   0  0  0  0  0  0  0  0  0  0  0  0
    4.3550    6.3520   -0.0060 C   0  0  0  0  0  0  0  0  0  0  0  0
   -4.3930   -4.8690    0.0170 C   0  0  0  0  0  0  0  0  0  0  0  0
    4.3760    7.9040    0.0020 C   0  0  0  0  0  0  0  0  0  0  0  0
   -4.4140   -6.4210    0.0080 C   0  0  0  0  0  0  0  0  0  0  0  0
    5.8170    8.4810   -0.0090 C   0  0  0  0  0  0  0  0  0  0  0  0
   -5.8550   -6.9980    0.0190 C   0  0  0  0  0  0  0  0  0  0  0  0
    5.8380   10.0330    0.0000 C   0  0  0  0  0  0  0  0  0  0  0  0
   -5.8760   -8.5500    0.0110 C   0  0  0  0  0  0  0  0  0  0  0  0
    7.2780   10.6100   -0.0110 C   0  0  0  0  0  0  0  0  0  0  0  0
   -7.3160   -9.1260    0.0220 C   0  0  0  0  0  0  0  0  0  0  0  0
    7.2980   12.1610   -0.0030 C   0  0  0  0  0  0  0  0  0  0  0  0
   -7.3400  -10.6710    0.0130 C   0  0  0  0  0  0  0  0  0  0  0  0
    8.7310   12.7390   -0.0140 C   0  0  0  0  0  0  0  0  0  0  0  0
   -0.5460    1.8850   -0.8690 H   0  0  0  0  0  0  0  0  0  0  0  0
   -0.5290    1.8760    0.9020 H   0  0  0  0  0  0  0  0  0  0  0  0
    0.4900   -0.3920   -0.8920 H   0  0  0  0  0  0  0  0  0  0  0  0
    0.5080   -0.4020    0.8800 H   0  0  0  0  0  0  0  0  0  0  0  0
    1.9690    1.7270    0.8770 H   0  0  0  0  0  0  0  0  0  0  0  0
    1.9520    1.7360   -0.8940 H   0  0  0  0  0  0  0  0  0  0  0  0
   -1.9900   -0.2530    0.9050 H   0  0  0  0  0  0  0  0  0  0  0  0
   -2.0080   -0.2440   -0.8670 H   0  0  0  0  0  0  0  0  0  0  0  0
    0.9160    4.0140   -0.8720 H   0  0  0  0  0  0  0  0  0  0  0  0
    0.9330    4.0040    0.9000 H   0  0  0  0  0  0  0  0  0  0  0  0
   -0.9710   -2.5210   -0.8900 H   0  0  0  0  0  0  0  0  0  0  0  0
   -0.9540   -2.5310    0.8820 H   0  0  0  0  0  0  0  0  0  0  0  0
    3.4310    3.8560    0.8750 H   0  0  0  0  0  0  0  0  0  0  0  0
    3.4140    3.8650   -0.8970 H   0  0  0  0  0  0  0  0  0  0  0  0
   -3.4520   -2.3820    0.9070 H   0  0  0  0  0  0  0  0  0  0  0  0
   -3.4690   -2.3720   -0.8640 H   0  0  0  0  0  0  0  0  0  0  0  0
    2.3770    6.1430   -0.8740 H   0  0  0  0  0  0  0  0  0  0  0  0
    2.3950    6.1330    0.8970 H   0  0  0  0  0  0  0  0  0  0  0  0
   -2.4330   -4.6500   -0.8870 H   0  0  0  0  0  0  0  0  0  0  0  0
   -2.4150   -4.6600    0.8840 H   0  0  0  0  0  0  0  0  0  0  0  0
    4.8930    5.9840    0.8720 H   0  0  0  0  0  0  0  0  0  0  0  0
    4.8750    5.9940   -0.8990 H   0  0  0  0  0  0  0  0  0  0  0  0
   -4.9130   -4.5110    0.9100 H   0  0  0  0  0  0  0  0  0  0  0  0
   -4.9310   -4.5010   -0.8620 H   0  0  0  0  0  0  0  0  0  0  0  0
    3.8390    8.2720   -0.8770 H   0  0  0  0  0  0  0  0  0  0  0  0
    3.8560    8.2620    0.8950 H   0  0  0  0  0  0  0  0  0  0  0  0
   -3.8940   -6.7790   -0.8850 H   0  0  0  0  0  0  0  0  0  0  0  0
   -3.8770   -6.7890    0.8870 H   0  0  0  0  0  0  0  0  0  0  0  0
    6.3540    8.1130    0.8700 H   0  0  0  0  0  0  0  0  0  0  0  0
    6.3370    8.1230   -0.9020 H   0  0  0  0  0  0  0  0  0  0  0  0
   -6.3750   -6.6410    0.9130 H   0  0  0  0  0  0  0  0  0  0  0  0
   -6.3920   -6.6300   -0.8590 H   0  0  0  0  0  0  0  0  0  0  0  0
    5.3000   10.4010   -0.8790 H   0  0  0  0  0  0  0  0  0  0  0  0
    5.3180   10.3910    0.8920 H   0  0  0  0  0  0  0  0  0  0  0  0
   -5.3560   -8.9080   -0.8820 H   0  0  0  0  0  0  0  0  0  0  0  0
   -5.3390   -8.9190    0.8890 H   0  0  0  0  0  0  0  0  0  0  0  0
    7.8160   10.2430    0.8670 H   0  0  0  0  0  0  0  0  0  0  0  0
    7.7990   10.2530   -0.9040 H   0  0  0  0  0  0  0  0  0  0  0  0
   -7.8410   -8.7750    0.9140 H   0  0  0  0  0  0  0  0  0  0  0  0
   -7.8580   -8.7650   -0.8560 H   0  0  0  0  0  0  0  0  0  0  0  0
    6.7650   12.5360   -0.8810 H   0  0  0  0  0  0  0  0  0  0  0  0
    6.7820   12.5260    0.8890 H   0  0  0  0  0  0  0  0  0  0  0  0
   -8.3730  -11.0240    0.0220 H   0  0  0  0  0  0  0  0  0  0  0  0
   -6.8490  -11.0540   -0.8830 H   0  0  0  0  0  0  0  0  0  0  0  0
   -6.8310  -11.0650    0.8950 H   0  0  0  0  0  0  0  0  0  0  0  0
    8.6890   13.8300   -0.0070 H   0  0  0  0  0  0  0  0  0  0  0  0
    9.2820   12.4070    0.8680 H   0  0  0  0  0  0  0  0  0  0  0  0
    9.2650   12.4170   -0.9100 H   0  0  0  0  0  0  0  0  0  0  0  0
  1 25  1  0  0  0  0
  1  2  1  0  0  0  0
  1  3  1  0  0  0  0
  1 24  1  0  0  0  0
  2  4  1  0  0  0  0
  2 27  1  0  0  0  0
  2 26  1  0  0  0  0
  3  5  1  0  0  0  0
  3 28  1  0  0  0  0
  3 29  1  0  0  0  0
  4 30  1  0  0  0  0
  4  6  1  0  0  0  0
  4 31  1  0  0  0  0
  5 33  1  0  0  0  0
  5  7  1  0  0  0  0
  5 32  1  0  0  0  0
  6  8  1  0  0  0  0
  6 35  1  0  0  0  0
  6 34  1  0  0  0  0
  7  9  1  0  0  0  0
  7 36  1  0  0  0  0
  7 37  1  0  0  0  0
  8 38  1  0  0  0  0
  8 10  1  0  0  0  0
  8 39  1  0  0  0  0
  9 41  1  0  0  0  0
  9 11  1  0  0  0  0
  9 40  1  0  0  0  0
 10 12  1  0  0  0  0
 10 43  1  0  0  0  0
 10 42  1  0  0  0  0
 11 13  1  0  0  0  0
 11 44  1  0  0  0  0
 11 45  1  0  0  0  0
 12 46  1  0  0  0  0
 12 14  1  0  0  0  0
 12 47  1  0  0  0  0
 13 49  1  0  0  0  0
 13 15  1  0  0  0  0
 13 48  1  0  0  0  0
 14 16  1  0  0  0  0
 14 51  1  0  0  0  0
 14 50  1  0  0  0  0
 15 17  1  0  0  0  0
 15 52  1  0  0  0  0
 15 53  1  0  0  0  0
 16 54  1  0  0  0  0
 16 18  1  0  0  0  0
 16 55  1  0  0  0  0
 17 57  1  0  0  0  0
 17 19  1  0  0  0  0
 17 56  1  0  0  0  0
 18 20  1  0  0  0  0
 18 59  1  0  0  0  0
 18 58  1  0  0  0  0
 19 21  1  0  0  0  0
 19 60  1  0  0  0  0
 19 61  1  0  0  0  0
 20 62  1  0  0  0  0
 20 22  1  0  0  0  0
 20 63  1  0  0  0  0
 21 65  1  0  0  0  0
 21 23  1  0  0  0  0
 21 64  1  0  0  0  0
 22 66  1  0  0  0  0
 22 68  1  0  0  0  0
 22 67  1  0  0  0  0
 23 69  1  0  0  0  0
 23 70  1  0  0  0  0
 23 71  1  0  0  0  0
M  END
