decoy-804
 OpenBabel06062114513D

 44 44  0  0  0  0  0  0  0  0999 V2000
   -1.7640    1.7260    1.2660 C   0  0  0  0  0  0  0  0  0  0  0  0
   -2.1430    0.4820    1.8190 C   0  0  0  0  0  0  0  0  0  0  0  0
   -0.4010    1.9430    0.9620 C   0  0  0  0  0  0  0  0  0  0  0  0
   -2.7070    2.7100    1.0340 C   0  0  0  0  0  0  0  0  0  0  0  0
   -1.1820   -0.5190    2.0560 C   0  0  0  0  0  0  0  0  0  0  0  0
    0.5570    0.9390    1.1980 C   0  0  0  0  0  0  0  0  0  0  0  0
   -2.5280    3.9230    1.5380 N   0  0  0  0  0  0  0  0  0  0  0  0
   -3.6980    2.4340    0.3680 O   0  0  0  0  0  0  0  0  0  0  0  0
    0.1790   -0.3150    1.7370 C   0  0  0  0  0  0  0  0  0  0  0  0
   -3.4200    5.0280    1.3750 C   0  0  0  0  0  0  0  0  0  0  0  0
    1.0300   -1.3500    2.0190 N   0  0  0  0  0  0  0  0  0  0  0  0
   -2.8680    6.2860    2.0910 C   0  0  0  0  0  0  0  0  0  0  0  0
    2.2550   -1.6100    1.5800 C   0  0  0  0  0  0  0  0  0  0  0  0
   -3.7570    7.4850    1.8970 C   0  0  0  0  0  0  0  0  0  0  0  0
    2.9140   -2.8020    2.0640 C   0  0  0  0  0  0  0  0  0  0  0  0
    2.8300   -0.9200    0.7480 O   0  0  0  0  0  0  0  0  0  0  0  0
   -4.9230    7.5080    2.8480 C   0  0  0  0  0  0  0  0  0  0  0  0
   -2.9980    8.7830    1.8710 C   0  0  0  0  0  0  0  0  0  0  0  0
   -6.1670    8.1920    2.2360 C   0  0  0  0  0  0  0  0  0  0  0  0
   -2.3550    9.0610    0.4930 C   0  0  0  0  0  0  0  0  0  0  0  0
   -3.1200    0.2950    2.0600 H   0  0  0  0  0  0  0  0  0  0  0  0
   -0.0930    2.8360    0.5670 H   0  0  0  0  0  0  0  0  0  0  0  0
   -1.4880   -1.4080    2.4600 H   0  0  0  0  0  0  0  0  0  0  0  0
    1.5330    1.1500    0.9930 H   0  0  0  0  0  0  0  0  0  0  0  0
   -1.7250    4.0740    2.0610 H   0  0  0  0  0  0  0  0  0  0  0  0
   -3.5350    5.2480    0.3100 H   0  0  0  0  0  0  0  0  0  0  0  0
   -4.3960    4.7600    1.7830 H   0  0  0  0  0  0  0  0  0  0  0  0
    0.6610   -2.0280    2.6090 H   0  0  0  0  0  0  0  0  0  0  0  0
   -2.7330    6.0770    3.1570 H   0  0  0  0  0  0  0  0  0  0  0  0
   -1.8710    6.4670    1.6790 H   0  0  0  0  0  0  0  0  0  0  0  0
    3.9070   -2.9230    1.6250 H   0  0  0  0  0  0  0  0  0  0  0  0
    3.0240   -2.7460    3.1490 H   0  0  0  0  0  0  0  0  0  0  0  0
    2.3180   -3.6820    1.8130 H   0  0  0  0  0  0  0  0  0  0  0  0
   -5.2340    6.4960    3.1180 H   0  0  0  0  0  0  0  0  0  0  0  0
   -4.6520    8.0120    3.7810 H   0  0  0  0  0  0  0  0  0  0  0  0
   -3.6570    9.6300    2.0760 H   0  0  0  0  0  0  0  0  0  0  0  0
   -2.2230    8.7930    2.6440 H   0  0  0  0  0  0  0  0  0  0  0  0
   -7.0050    8.1290    2.9340 H   0  0  0  0  0  0  0  0  0  0  0  0
   -5.9760    9.2440    2.0250 H   0  0  0  0  0  0  0  0  0  0  0  0
   -6.4490    7.6920    1.3080 H   0  0  0  0  0  0  0  0  0  0  0  0
   -1.8720   10.0400    0.5010 H   0  0  0  0  0  0  0  0  0  0  0  0
   -1.6030    8.3100    0.2480 H   0  0  0  0  0  0  0  0  0  0  0  0
   -3.1220    9.0580   -0.2840 H   0  0  0  0  0  0  0  0  0  0  0  0
   -4.1630    7.3820    0.9640 H   0  0  0  0  0  0  0  0  0  0  0  0
  1  2  2  0  0  0  0
  1  3  1  0  0  0  0
  1  4  1  0  0  0  0
  2  5  1  0  0  0  0
  2 21  1  0  0  0  0
  3  6  2  0  0  0  0
  3 22  1  0  0  0  0
  4  7  1  0  0  0  0
  4  8  2  0  0  0  0
  5 23  1  0  0  0  0
  5  9  2  0  0  0  0
  6  9  1  0  0  0  0
  6 24  1  0  0  0  0
  7 25  1  0  0  0  0
  7 10  1  0  0  0  0
  9 11  1  0  0  0  0
 10 27  1  0  0  0  0
 10 12  1  0  0  0  0
 10 26  1  0  0  0  0
 11 28  1  0  0  0  0
 11 13  1  0  0  0  0
 12 29  1  0  0  0  0
 12 14  1  0  0  0  0
 12 30  1  0  0  0  0
 13 15  1  0  0  0  0
 13 16  2  0  0  0  0
 14 17  1  0  0  0  0
 14 18  1  0  0  0  0
 14 44  1  0  0  0  0
 15 32  1  0  0  0  0
 15 31  1  0  0  0  0
 15 33  1  0  0  0  0
 17 34  1  0  0  0  0
 17 35  1  0  0  0  0
 17 19  1  0  0  0  0
 18 36  1  0  0  0  0
 18 37  1  0  0  0  0
 18 20  1  0  0  0  0
 19 38  1  0  0  0  0
 19 39  1  0  0  0  0
 19 40  1  0  0  0  0
 20 41  1  0  0  0  0
 20 42  1  0  0  0  0
 20 43  1  0  0  0  0
M  END
