decoy-211
 OpenBabel06062114503D

 41 44  0  0  0  0  0  0  0  0999 V2000
   -0.0170    1.3820   -0.0030 C   0  0  0  0  0  0  0  0  0  0  0  0
    0.0020   -0.0450   -0.0170 C   0  0  0  0  0  0  0  0  0  0  0  0
    1.1840    2.1230    0.0830 C   0  0  0  0  0  0  0  0  0  0  0  0
   -1.2390    2.0910   -0.0760 C   0  0  0  0  0  0  0  0  0  0  0  0
   -0.8840   -0.7930    0.7980 C   0  0  0  0  0  0  0  0  0  0  0  0
    0.9090   -0.7530   -0.8450 C   0  0  0  0  0  0  0  0  0  0  0  0
    1.1620    3.5370    0.0870 C   0  0  0  0  0  0  0  0  0  0  0  0
   -1.2560    3.5050   -0.0540 C   0  0  0  0  0  0  0  0  0  0  0  0
   -0.8650   -2.2000    0.7860 C   0  0  0  0  0  0  0  0  0  0  0  0
    0.9280   -2.1600   -0.8580 C   0  0  0  0  0  0  0  0  0  0  0  0
    2.3340    4.3470    0.1650 C   0  0  0  0  0  0  0  0  0  0  0  0
   -0.0550    4.1400    0.0220 N   0  0  0  0  0  0  0  0  0  0  0  0
   -2.4500    4.2840   -0.1180 C   0  0  0  0  0  0  0  0  0  0  0  0
    0.0410   -2.8840   -0.0430 C   0  0  0  0  0  0  0  0  0  0  0  0
    2.2890    5.6160    0.7980 C   0  0  0  0  0  0  0  0  0  0  0  0
    3.5690    3.9330   -0.3980 C   0  0  0  0  0  0  0  0  0  0  0  0
   -2.4400    5.5650   -0.7280 C   0  0  0  0  0  0  0  0  0  0  0  0
   -3.6720    3.8260    0.4370 C   0  0  0  0  0  0  0  0  0  0  0  0
    3.4340    6.4310    0.8800 C   0  0  0  0  0  0  0  0  0  0  0  0
    4.7140    4.7470   -0.3190 C   0  0  0  0  0  0  0  0  0  0  0  0
   -3.6070    6.3490   -0.7940 C   0  0  0  0  0  0  0  0  0  0  0  0
   -4.8400    4.6090    0.3730 C   0  0  0  0  0  0  0  0  0  0  0  0
    4.6480    5.9960    0.3220 C   0  0  0  0  0  0  0  0  0  0  0  0
   -4.8080    5.8710   -0.2450 C   0  0  0  0  0  0  0  0  0  0  0  0
    2.0750    1.6290    0.1770 H   0  0  0  0  0  0  0  0  0  0  0  0
   -2.1150    1.5750   -0.1800 H   0  0  0  0  0  0  0  0  0  0  0  0
   -1.5430   -0.3190    1.4210 H   0  0  0  0  0  0  0  0  0  0  0  0
    1.5540   -0.2500   -1.4590 H   0  0  0  0  0  0  0  0  0  0  0  0
   -1.5080   -2.7260    1.3820 H   0  0  0  0  0  0  0  0  0  0  0  0
    1.5850   -2.6570   -1.4640 H   0  0  0  0  0  0  0  0  0  0  0  0
    0.0550   -3.9070   -0.0520 H   0  0  0  0  0  0  0  0  0  0  0  0
    1.4230    5.9570    1.2220 H   0  0  0  0  0  0  0  0  0  0  0  0
    3.6460    3.0420   -0.8930 H   0  0  0  0  0  0  0  0  0  0  0  0
   -1.5830    5.9380   -1.1450 H   0  0  0  0  0  0  0  0  0  0  0  0
   -3.7240    2.9240    0.9160 H   0  0  0  0  0  0  0  0  0  0  0  0
    3.3840    7.3400    1.3450 H   0  0  0  0  0  0  0  0  0  0  0  0
    5.5950    4.4330   -0.7330 H   0  0  0  0  0  0  0  0  0  0  0  0
   -3.5810    7.2680   -1.2430 H   0  0  0  0  0  0  0  0  0  0  0  0
   -5.7110    4.2640    0.7810 H   0  0  0  0  0  0  0  0  0  0  0  0
    5.4790    6.5880    0.3790 H   0  0  0  0  0  0  0  0  0  0  0  0
   -5.6550    6.4410   -0.2910 H   0  0  0  0  0  0  0  0  0  0  0  0
  1  3  2  0  0  0  0
  1  2  1  0  0  0  0
  1  4  1  0  0  0  0
  2  5  2  0  0  0  0
  2  6  1  0  0  0  0
  3  7  1  0  0  0  0
  3 25  1  0  0  0  0
  4  8  2  0  0  0  0
  4 26  1  0  0  0  0
  5 27  1  0  0  0  0
  5  9  1  0  0  0  0
  6 10  2  0  0  0  0
  6 28  1  0  0  0  0
  7 11  1  0  0  0  0
  7 12  2  0  0  0  0
  8 12  1  0  0  0  0
  8 13  1  0  0  0  0
  9 29  1  0  0  0  0
  9 14  2  0  0  0  0
 10 14  1  0  0  0  0
 10 30  1  0  0  0  0
 11 15  2  0  0  0  0
 11 16  1  0  0  0  0
 13 18  2  0  0  0  0
 13 17  1  0  0  0  0
 14 31  1  0  0  0  0
 15 19  1  0  0  0  0
 15 32  1  0  0  0  0
 16 20  2  0  0  0  0
 16 33  1  0  0  0  0
 17 21  2  0  0  0  0
 17 34  1  0  0  0  0
 18 35  1  0  0  0  0
 18 22  1  0  0  0  0
 19 36  1  0  0  0  0
 19 23  2  0  0  0  0
 20 23  1  0  0  0  0
 20 37  1  0  0  0  0
 21 24  1  0  0  0  0
 21 38  1  0  0  0  0
 22 39  1  0  0  0  0
 22 24  2  0  0  0  0
 23 40  1  0  0  0  0
 24 41  1  0  0  0  0
M  END
