decoy-1066
 OpenBabel06062114513D

 31 32  0  0  0  0  0  0  0  0999 V2000
    0.0620    1.3970    0.0520 C   0  0  0  0  0  0  0  0  0  0  0  0
   -0.0420   -0.0230   -0.0040 C   0  0  0  0  0  0  0  0  0  0  0  0
    1.3500    1.9880    0.0630 C   0  0  0  0  0  0  0  0  0  0  0  0
   -1.0730    2.2580    0.0830 C   0  0  0  0  0  0  0  0  0  0  0  0
    1.1470   -0.7910   -0.0850 C   0  0  0  0  0  0  0  0  0  0  0  0
   -1.2660   -0.6190    0.0590 N   0  0  0  0  0  0  0  0  0  0  0  0
    2.5280    1.2170   -0.0070 C   0  0  0  0  0  0  0  0  0  0  0  0
   -0.9980    3.5160    0.5780 O   0  0  0  0  0  0  0  0  0  0  0  0
   -2.2250    1.9460   -0.5520 O   0  0  0  0  0  0  0  0  0  0  0  0
    2.4190   -0.1900   -0.0880 C   0  0  0  0  0  0  0  0  0  0  0  0
   -1.5690   -2.0130    0.0160 C   0  0  0  0  0  0  0  0  0  0  0  0
    4.0710    2.0370    0.0020 S   0  0  0  0  0  0  0  0  0  0  0  0
    3.7700   -1.2150   -0.1790 Cl  0  0  0  0  0  0  0  0  0  0  0  0
   -3.0240   -2.2030    0.1330 C   0  0  0  0  0  0  0  0  0  0  0  0
    5.0120    1.5710    1.3140 N   0  0  0  0  0  0  0  0  0  0  0  0
    4.8900    1.6450   -1.3030 O   0  0  0  0  0  0  0  0  0  0  0  0
    3.9890    3.6260   -0.0170 O   0  0  0  0  0  0  0  0  0  0  0  0
   -3.8710   -2.7920   -0.8030 C   0  0  0  0  0  0  0  0  0  0  0  0
   -3.7600   -1.8170    1.2050 O   0  0  0  0  0  0  0  0  0  0  0  0
   -5.1510   -2.7550   -0.2740 C   0  0  0  0  0  0  0  0  0  0  0  0
   -5.0520   -2.1450    0.9700 C   0  0  0  0  0  0  0  0  0  0  0  0
    1.4370    3.0060    0.1040 H   0  0  0  0  0  0  0  0  0  0  0  0
    1.0940   -1.8100   -0.1300 H   0  0  0  0  0  0  0  0  0  0  0  0
   -2.0280   -0.0310    0.1600 H   0  0  0  0  0  0  0  0  0  0  0  0
   -1.2090   -2.4390   -0.9240 H   0  0  0  0  0  0  0  0  0  0  0  0
   -1.0880   -2.5280    0.8500 H   0  0  0  0  0  0  0  0  0  0  0  0
    5.7450    0.9480    1.1890 H   0  0  0  0  0  0  0  0  0  0  0  0
    4.8200    1.9220    2.1980 H   0  0  0  0  0  0  0  0  0  0  0  0
   -3.6050   -3.1790   -1.7110 H   0  0  0  0  0  0  0  0  0  0  0  0
   -6.0020   -3.1070   -0.7140 H   0  0  0  0  0  0  0  0  0  0  0  0
   -5.8290   -1.9720    1.6090 H   0  0  0  0  0  0  0  0  0  0  0  0
  1  3  2  0  0  0  0
  1  4  1  0  0  0  0
  1  2  1  0  0  0  0
  2  6  1  0  0  0  0
  2  5  2  0  0  0  0
  3 22  1  0  0  0  0
  3  7  1  0  0  0  0
  4  8  1  0  0  0  0
  4  9  2  0  0  0  0
  5 10  1  0  0  0  0
  5 23  1  0  0  0  0
  6 24  1  0  0  0  0
  6 11  1  0  0  0  0
  7 12  1  0  0  0  0
  7 10  2  0  0  0  0
 10 13  1  0  0  0  0
 11 14  1  0  0  0  0
 11 26  1  0  0  0  0
 11 25  1  0  0  0  0
 12 15  1  0  0  0  0
 12 16  2  0  0  0  0
 12 17  2  0  0  0  0
 14 19  1  0  0  0  0
 14 18  2  0  0  0  0
 15 28  1  0  0  0  0
 15 27  1  0  0  0  0
 18 20  1  0  0  0  0
 18 29  1  0  0  0  0
 19 21  1  0  0  0  0
 20 21  2  0  0  0  0
 20 30  1  0  0  0  0
 21 31  1  0  0  0  0
M  END
