decoy-239
 OpenBabel06062114513D

 38 39  0  0  0  0  0  0  0  0999 V2000
   -0.1700    1.3800    0.0640 C   0  0  0  0  0  0  0  0  0  0  0  0
   -0.1690    0.0310   -0.3680 C   0  0  0  0  0  0  0  0  0  0  0  0
    1.0510    1.9350    0.5220 C   0  0  0  0  0  0  0  0  0  0  0  0
   -1.3540    2.1100    0.0380 C   0  0  0  0  0  0  0  0  0  0  0  0
    1.0090   -0.7460   -0.3410 C   0  0  0  0  0  0  0  0  0  0  0  0
    2.2320    1.1720    0.5340 C   0  0  0  0  0  0  0  0  0  0  0  0
   -1.3660    3.3940    0.0450 N   0  0  0  0  0  0  0  0  0  0  0  0
    2.2190   -0.1640    0.0960 C   0  0  0  0  0  0  0  0  0  0  0  0
    0.9790   -2.0370   -0.7950 O   0  0  0  0  0  0  0  0  0  0  0  0
   -2.3880    4.0820    0.0100 N   0  0  0  0  0  0  0  0  0  0  0  0
    3.3800   -0.8670    0.1090 O   0  0  0  0  0  0  0  0  0  0  0  0
    0.6530   -2.9910    0.2300 C   0  0  0  0  0  0  0  0  0  0  0  0
   -2.4000    5.3660    0.0170 C   0  0  0  0  0  0  0  0  0  0  0  0
   -3.5830    6.0960   -0.0100 C   0  0  0  0  0  0  0  0  0  0  0  0
   -3.5850    7.4450    0.4220 C   0  0  0  0  0  0  0  0  0  0  0  0
   -4.8040    5.5410   -0.4680 C   0  0  0  0  0  0  0  0  0  0  0  0
   -4.7620    8.2210    0.3950 C   0  0  0  0  0  0  0  0  0  0  0  0
   -5.9850    6.3040   -0.4790 C   0  0  0  0  0  0  0  0  0  0  0  0
   -5.9720    7.6400   -0.0420 C   0  0  0  0  0  0  0  0  0  0  0  0
   -4.7320    9.5130    0.8490 O   0  0  0  0  0  0  0  0  0  0  0  0
   -7.1330    8.3430   -0.0550 O   0  0  0  0  0  0  0  0  0  0  0  0
   -4.4060   10.4670   -0.1760 C   0  0  0  0  0  0  0  0  0  0  0  0
   -1.0310   -0.4020   -0.7110 H   0  0  0  0  0  0  0  0  0  0  0  0
    1.0940    2.9030    0.8520 H   0  0  0  0  0  0  0  0  0  0  0  0
   -2.2210    1.6190   -0.0110 H   0  0  0  0  0  0  0  0  0  0  0  0
    3.1040    1.5950    0.8600 H   0  0  0  0  0  0  0  0  0  0  0  0
    3.1700   -1.7460   -0.2680 H   0  0  0  0  0  0  0  0  0  0  0  0
    0.6580   -3.9850   -0.2170 H   0  0  0  0  0  0  0  0  0  0  0  0
    1.3890   -2.9760    1.0370 H   0  0  0  0  0  0  0  0  0  0  0  0
   -0.3430   -2.8080    0.6420 H   0  0  0  0  0  0  0  0  0  0  0  0
   -1.5330    5.8570    0.0650 H   0  0  0  0  0  0  0  0  0  0  0  0
   -2.7220    7.8780    0.7650 H   0  0  0  0  0  0  0  0  0  0  0  0
   -4.8470    4.5730   -0.7980 H   0  0  0  0  0  0  0  0  0  0  0  0
   -6.8580    5.8810   -0.8060 H   0  0  0  0  0  0  0  0  0  0  0  0
   -6.9240    9.2220    0.3230 H   0  0  0  0  0  0  0  0  0  0  0  0
   -4.4120   11.4610    0.2710 H   0  0  0  0  0  0  0  0  0  0  0  0
   -3.4100   10.2840   -0.5870 H   0  0  0  0  0  0  0  0  0  0  0  0
   -5.1430   10.4520   -0.9830 H   0  0  0  0  0  0  0  0  0  0  0  0
  1  3  2  0  0  0  0
  1  2  1  0  0  0  0
  1  4  1  0  0  0  0
  2  5  2  0  0  0  0
  2 23  1  0  0  0  0
  3  6  1  0  0  0  0
  3 24  1  0  0  0  0
  4  7  2  0  0  0  0
  4 25  1  0  0  0  0
  5  8  1  0  0  0  0
  5  9  1  0  0  0  0
  6 26  1  0  0  0  0
  6  8  2  0  0  0  0
  7 10  1  0  0  0  0
  8 11  1  0  0  0  0
  9 12  1  0  0  0  0
 10 13  2  0  0  0  0
 11 27  1  0  0  0  0
 12 30  1  0  0  0  0
 12 29  1  0  0  0  0
 12 28  1  0  0  0  0
 13 31  1  0  0  0  0
 13 14  1  0  0  0  0
 14 15  2  0  0  0  0
 14 16  1  0  0  0  0
 15 32  1  0  0  0  0
 15 17  1  0  0  0  0
 16 18  2  0  0  0  0
 16 33  1  0  0  0  0
 17 20  1  0  0  0  0
 17 19  2  0  0  0  0
 18 19  1  0  0  0  0
 18 34  1  0  0  0  0
 19 21  1  0  0  0  0
 20 22  1  0  0  0  0
 21 35  1  0  0  0  0
 22 36  1  0  0  0  0
 22 37  1  0  0  0  0
 22 38  1  0  0  0  0
M  END
