decoy-926
 OpenBabel06062114513D

 72 77  0  0  0  0  0  0  0  0999 V2000
    0.5120    2.2700   -0.3570 C   0  0  0  0  0  0  0  0  0  0  0  0
    0.1900    0.7450   -0.2480 C   0  0  0  0  0  0  0  0  0  0  0  0
    1.8320    2.3900    0.2060 O   0  0  0  0  0  0  0  0  0  0  0  0
   -0.4850    3.1500    0.4570 C   0  0  0  0  0  0  0  0  0  0  0  0
    0.5160    2.6970   -1.7460 O   0  0  0  0  0  0  0  0  0  0  0  0
    1.5950    0.0720   -0.2630 C   0  0  0  0  0  0  0  0  0  0  0  0
   -0.7820    0.1940   -1.3260 C   0  0  0  0  0  0  0  0  0  0  0  0
    2.5760    1.2690   -0.2810 C   0  0  0  0  0  0  0  0  0  0  0  0
   -0.2030    4.6610    0.2560 C   0  0  0  0  0  0  0  0  0  0  0  0
    0.8450    4.0810   -1.9830 C   0  0  0  0  0  0  0  0  0  0  0  0
    2.1020   -0.8360    0.9200 C   0  0  0  0  0  0  0  0  0  0  0  0
    3.7920    0.8940    0.6030 C   0  0  0  0  0  0  0  0  0  0  0  0
   -0.1450    5.0300   -1.2530 C   0  0  0  0  0  0  0  0  0  0  0  0
    3.6430   -0.6340    0.7530 C   0  0  0  0  0  0  0  0  0  0  0  0
    1.8250   -2.3650    0.7320 C   0  0  0  0  0  0  0  0  0  0  0  0
    1.5400   -0.3650    2.3180 C   0  0  0  0  0  0  0  0  0  0  0  0
    0.2210    6.5220   -1.4680 C   0  0  0  0  0  0  0  0  0  0  0  0
    4.5090   -1.4100    1.7990 C   0  0  0  0  0  0  0  0  0  0  0  0
    2.6400   -3.2390    1.7350 C   0  0  0  0  0  0  0  0  0  0  0  0
    4.1870   -2.9470    1.7380 C   0  0  0  0  0  0  0  0  0  0  0  0
    6.0320   -1.1980    1.5560 C   0  0  0  0  0  0  0  0  0  0  0  0
    5.0660   -3.7640    2.7910 C   0  0  0  0  0  0  0  0  0  0  0  0
    6.8960   -2.1560    2.2170 C   0  0  0  0  0  0  0  0  0  0  0  0
    6.4980   -3.3230    2.7730 C   0  0  0  0  0  0  0  0  0  0  0  0
    4.9950   -5.2950    2.4010 C   0  0  0  0  0  0  0  0  0  0  0  0
    4.5180   -3.5790    4.2530 C   0  0  0  0  0  0  0  0  0  0  0  0
    7.5210   -4.1690    3.4240 C   0  0  0  0  0  0  0  0  0  0  0  0
    6.0230   -6.2090    3.1180 C   0  0  0  0  0  0  0  0  0  0  0  0
    7.4520   -5.6420    2.9490 C   0  0  0  0  0  0  0  0  0  0  0  0
    8.3700   -6.4430    3.6900 O   0  0  0  0  0  0  0  0  0  0  0  0
    1.7250   -0.4730   -1.2060 H   0  0  0  0  0  0  0  0  0  0  0  0
    2.9160    1.4730   -1.3040 H   0  0  0  0  0  0  0  0  0  0  0  0
    3.9430   -1.0500   -0.2220 H   0  0  0  0  0  0  0  0  0  0  0  0
    4.2890   -1.0240    2.7940 H   0  0  0  0  0  0  0  0  0  0  0  0
    4.5220   -3.2640    0.7420 H   0  0  0  0  0  0  0  0  0  0  0  0
   -0.3000    0.5610    0.7070 H   0  0  0  0  0  0  0  0  0  0  0  0
   -1.5060    2.9370    0.1320 H   0  0  0  0  0  0  0  0  0  0  0  0
   -0.4120    2.9120    1.5220 H   0  0  0  0  0  0  0  0  0  0  0  0
   -1.7320    0.7310   -1.2870 H   0  0  0  0  0  0  0  0  0  0  0  0
   -0.3610    0.3010   -2.3280 H   0  0  0  0  0  0  0  0  0  0  0  0
   -0.9750   -0.8650   -1.1440 H   0  0  0  0  0  0  0  0  0  0  0  0
   -0.9910    5.2380    0.7480 H   0  0  0  0  0  0  0  0  0  0  0  0
    0.7470    4.9140    0.7370 H   0  0  0  0  0  0  0  0  0  0  0  0
    1.8740    4.2790   -1.6700 H   0  0  0  0  0  0  0  0  0  0  0  0
    0.7860    4.2530   -3.0600 H   0  0  0  0  0  0  0  0  0  0  0  0
    4.7340    1.1590    0.1160 H   0  0  0  0  0  0  0  0  0  0  0  0
    3.7490    1.3890    1.5760 H   0  0  0  0  0  0  0  0  0  0  0  0
   -1.1410    4.8700   -1.6800 H   0  0  0  0  0  0  0  0  0  0  0  0
    0.7580   -2.5680    0.8560 H   0  0  0  0  0  0  0  0  0  0  0  0
    2.0910   -2.6750   -0.2830 H   0  0  0  0  0  0  0  0  0  0  0  0
    1.5770    0.7190    2.4240 H   0  0  0  0  0  0  0  0  0  0  0  0
    0.5020   -0.6780    2.4390 H   0  0  0  0  0  0  0  0  0  0  0  0
    2.0890   -0.7880    3.1560 H   0  0  0  0  0  0  0  0  0  0  0  0
   -0.5090    7.1650   -0.9730 H   0  0  0  0  0  0  0  0  0  0  0  0
    1.2110    6.7400   -1.0620 H   0  0  0  0  0  0  0  0  0  0  0  0
    0.2200    6.7610   -2.5340 H   0  0  0  0  0  0  0  0  0  0  0  0
    2.2210   -3.0860    2.7280 H   0  0  0  0  0  0  0  0  0  0  0  0
    2.4670   -4.2850    1.4730 H   0  0  0  0  0  0  0  0  0  0  0  0
    6.2560   -1.2500    0.4870 H   0  0  0  0  0  0  0  0  0  0  0  0
    6.3000   -0.1950    1.9020 H   0  0  0  0  0  0  0  0  0  0  0  0
    7.8640   -1.9270    2.2100 H   0  0  0  0  0  0  0  0  0  0  0  0
    4.0000   -5.6940    2.6090 H   0  0  0  0  0  0  0  0  0  0  0  0
    5.1670   -5.4100    1.3270 H   0  0  0  0  0  0  0  0  0  0  0  0
    4.5010   -2.5280    4.5410 H   0  0  0  0  0  0  0  0  0  0  0  0
    3.5080   -3.9770    4.3550 H   0  0  0  0  0  0  0  0  0  0  0  0
    5.1250   -4.1050    4.9900 H   0  0  0  0  0  0  0  0  0  0  0  0
    8.5410   -3.8170    3.2400 H   0  0  0  0  0  0  0  0  0  0  0  0
    7.3790   -4.1340    4.5050 H   0  0  0  0  0  0  0  0  0  0  0  0
    5.7770   -6.2900    4.1790 H   0  0  0  0  0  0  0  0  0  0  0  0
    5.9780   -7.2140    2.6890 H   0  0  0  0  0  0  0  0  0  0  0  0
    7.7390   -5.6950    1.8940 H   0  0  0  0  0  0  0  0  0  0  0  0
    9.2520   -6.0560    3.5070 H   0  0  0  0  0  0  0  0  0  0  0  0
  1  2  1  0  0  0  0
  1  3  1  0  0  0  0
  1  4  1  0  0  0  0
  1  5  1  0  0  0  0
  2  6  1  0  0  0  0
  2 36  1  0  0  0  0
  2  7  1  0  0  0  0
  3  8  1  0  0  0  0
  4 38  1  0  0  0  0
  4  9  1  0  0  0  0
  4 37  1  0  0  0  0
  5 10  1  0  0  0  0
  6  8  1  0  0  0  0
  6 11  1  0  0  0  0
  6 31  1  0  0  0  0
  7 39  1  0  0  0  0
  7 41  1  0  0  0  0
  7 40  1  0  0  0  0
  8 32  1  0  0  0  0
  8 12  1  0  0  0  0
  9 43  1  0  0  0  0
  9 42  1  0  0  0  0
  9 13  1  0  0  0  0
 10 44  1  0  0  0  0
 10 13  1  0  0  0  0
 10 45  1  0  0  0  0
 11 16  1  0  0  0  0
 11 14  1  0  0  0  0
 11 15  1  0  0  0  0
 12 14  1  0  0  0  0
 12 47  1  0  0  0  0
 12 46  1  0  0  0  0
 13 48  1  0  0  0  0
 13 17  1  0  0  0  0
 14 18  1  0  0  0  0
 14 33  1  0  0  0  0
 15 49  1  0  0  0  0
 15 19  1  0  0  0  0
 15 50  1  0  0  0  0
 16 51  1  0  0  0  0
 16 52  1  0  0  0  0
 16 53  1  0  0  0  0
 17 55  1  0  0  0  0
 17 54  1  0  0  0  0
 17 56  1  0  0  0  0
 18 34  1  0  0  0  0
 18 20  1  0  0  0  0
 18 21  1  0  0  0  0
 19 20  1  0  0  0  0
 19 57  1  0  0  0  0
 19 58  1  0  0  0  0
 20 22  1  0  0  0  0
 20 35  1  0  0  0  0
 21 60  1  0  0  0  0
 21 23  1  0  0  0  0
 21 59  1  0  0  0  0
 22 26  1  0  0  0  0
 22 24  1  0  0  0  0
 22 25  1  0  0  0  0
 23 24  2  0  0  0  0
 23 61  1  0  0  0  0
 24 27  1  0  0  0  0
 25 62  1  0  0  0  0
 25 28  1  0  0  0  0
 25 63  1  0  0  0  0
 26 65  1  0  0  0  0
 26 64  1  0  0  0  0
 26 66  1  0  0  0  0
 27 68  1  0  0  0  0
 27 29  1  0  0  0  0
 27 67  1  0  0  0  0
 28 69  1  0  0  0  0
 28 29  1  0  0  0  0
 28 70  1  0  0  0  0
 29 71  1  0  0  0  0
 29 30  1  0  0  0  0
 30 72  1  0  0  0  0
M  END
