decoy-787
 OpenBabel06062114513D

 42 45  0  0  0  0  0  0  0  0999 V2000
   -0.0240    1.4460   -0.0060 C   0  0  0  0  0  0  0  0  0  0  0  0
   -0.0100    0.0200   -0.0230 C   0  0  0  0  0  0  0  0  0  0  0  0
    1.1810    2.1830    0.0510 C   0  0  0  0  0  0  0  0  0  0  0  0
   -1.2440    2.1610   -0.0460 C   0  0  0  0  0  0  0  0  0  0  0  0
   -0.8720   -0.7270    0.8190 C   0  0  0  0  0  0  0  0  0  0  0  0
    0.8660   -0.6900   -0.8830 C   0  0  0  0  0  0  0  0  0  0  0  0
    1.1890    3.5970    0.0690 C   0  0  0  0  0  0  0  0  0  0  0  0
   -1.2790    3.5740   -0.0310 C   0  0  0  0  0  0  0  0  0  0  0  0
   -0.8570   -2.1340    0.8030 C   0  0  0  0  0  0  0  0  0  0  0  0
    0.8790   -2.0970   -0.9000 C   0  0  0  0  0  0  0  0  0  0  0  0
    2.4170    4.3210    0.1330 C   0  0  0  0  0  0  0  0  0  0  0  0
   -0.0520    4.2740    0.0270 C   0  0  0  0  0  0  0  0  0  0  0  0
   -2.5210    4.2750   -0.0790 C   0  0  0  0  0  0  0  0  0  0  0  0
    0.0180   -2.8200   -0.0570 C   0  0  0  0  0  0  0  0  0  0  0  0
    2.5860    5.3900    1.0480 C   0  0  0  0  0  0  0  0  0  0  0  0
    3.5020    3.9890   -0.7160 C   0  0  0  0  0  0  0  0  0  0  0  0
   -2.7110    5.3620   -0.9680 C   0  0  0  0  0  0  0  0  0  0  0  0
   -3.5990    3.9020    0.7630 C   0  0  0  0  0  0  0  0  0  0  0  0
    3.7970    6.1030    1.1110 C   0  0  0  0  0  0  0  0  0  0  0  0
    4.7130    4.7030   -0.6550 C   0  0  0  0  0  0  0  0  0  0  0  0
   -3.9370    6.0520   -1.0140 C   0  0  0  0  0  0  0  0  0  0  0  0
   -4.8240    4.5920    0.7170 C   0  0  0  0  0  0  0  0  0  0  0  0
    4.8610    5.7600    0.2600 C   0  0  0  0  0  0  0  0  0  0  0  0
   -4.9940    5.6680   -0.1720 C   0  0  0  0  0  0  0  0  0  0  0  0
    2.0710    1.6800    0.1130 H   0  0  0  0  0  0  0  0  0  0  0  0
   -2.1230    1.6410   -0.1200 H   0  0  0  0  0  0  0  0  0  0  0  0
   -1.5070   -0.2520    1.4650 H   0  0  0  0  0  0  0  0  0  0  0  0
    1.4920   -0.1870   -1.5170 H   0  0  0  0  0  0  0  0  0  0  0  0
   -1.4820   -2.6590    1.4200 H   0  0  0  0  0  0  0  0  0  0  0  0
    1.5140   -2.5950   -1.5290 H   0  0  0  0  0  0  0  0  0  0  0  0
   -0.0620    5.2980    0.0390 H   0  0  0  0  0  0  0  0  0  0  0  0
    0.0280   -3.8420   -0.0690 H   0  0  0  0  0  0  0  0  0  0  0  0
    1.8320    5.6500    1.6890 H   0  0  0  0  0  0  0  0  0  0  0  0
    3.4140    3.2330   -1.4010 H   0  0  0  0  0  0  0  0  0  0  0  0
   -1.9630    5.6520   -1.6020 H   0  0  0  0  0  0  0  0  0  0  0  0
   -3.4960    3.1320    1.4290 H   0  0  0  0  0  0  0  0  0  0  0  0
    3.9060    6.8700    1.7790 H   0  0  0  0  0  0  0  0  0  0  0  0
    5.4860    4.4540   -1.2770 H   0  0  0  0  0  0  0  0  0  0  0  0
   -4.0600    6.8320   -1.6640 H   0  0  0  0  0  0  0  0  0  0  0  0
   -5.5920    4.3140    1.3330 H   0  0  0  0  0  0  0  0  0  0  0  0
    5.7420    6.2780    0.3050 H   0  0  0  0  0  0  0  0  0  0  0  0
   -5.8840    6.1690   -0.2050 H   0  0  0  0  0  0  0  0  0  0  0  0
  1  3  2  0  0  0  0
  1  2  1  0  0  0  0
  1  4  1  0  0  0  0
  2  5  2  0  0  0  0
  2  6  1  0  0  0  0
  3  7  1  0  0  0  0
  3 25  1  0  0  0  0
  4  8  2  0  0  0  0
  4 26  1  0  0  0  0
  5 27  1  0  0  0  0
  5  9  1  0  0  0  0
  6 10  2  0  0  0  0
  6 28  1  0  0  0  0
  7 11  1  0  0  0  0
  7 12  2  0  0  0  0
  8 12  1  0  0  0  0
  8 13  1  0  0  0  0
  9 29  1  0  0  0  0
  9 14  2  0  0  0  0
 10 14  1  0  0  0  0
 10 30  1  0  0  0  0
 11 15  2  0  0  0  0
 11 16  1  0  0  0  0
 12 31  1  0  0  0  0
 13 18  2  0  0  0  0
 13 17  1  0  0  0  0
 14 32  1  0  0  0  0
 15 19  1  0  0  0  0
 15 33  1  0  0  0  0
 16 20  2  0  0  0  0
 16 34  1  0  0  0  0
 17 21  2  0  0  0  0
 17 35  1  0  0  0  0
 18 36  1  0  0  0  0
 18 22  1  0  0  0  0
 19 37  1  0  0  0  0
 19 23  2  0  0  0  0
 20 23  1  0  0  0  0
 20 38  1  0  0  0  0
 21 24  1  0  0  0  0
 21 39  1  0  0  0  0
 22 40  1  0  0  0  0
 22 24  2  0  0  0  0
 23 41  1  0  0  0  0
 24 42  1  0  0  0  0
M  END
