decoy-247
 OpenBabel06062114513D

 54 56  0  0  0  0  0  0  0  0999 V2000
   -0.6730   -1.1160    1.0920 C   0  0  0  0  0  0  0  0  0  0  0  0
    0.6690   -1.5060    0.7240 O   0  0  0  0  0  0  0  0  0  0  0  0
   -0.7990    0.3190    1.2220 O   0  0  0  0  0  0  0  0  0  0  0  0
   -1.0880   -1.8460    2.3990 C   0  0  0  0  0  0  0  0  0  0  0  0
    0.9370   -1.5860   -0.6180 C   0  0  0  0  0  0  0  0  0  0  0  0
   -0.1630    0.9800    2.3450 C   0  0  0  0  0  0  0  0  0  0  0  0
   -0.3780   -1.2490    3.6440 C   0  0  0  0  0  0  0  0  0  0  0  0
   -2.5030   -1.7600    2.5710 O   0  0  0  0  0  0  0  0  0  0  0  0
    1.2480   -2.8500   -1.1580 C   0  0  0  0  0  0  0  0  0  0  0  0
    0.9530   -0.4530   -1.4580 C   0  0  0  0  0  0  0  0  0  0  0  0
   -0.5240    0.2960    3.7000 C   0  0  0  0  0  0  0  0  0  0  0  0
    1.3600    1.2080    2.1440 C   0  0  0  0  0  0  0  0  0  0  0  0
    1.0000   -1.6180    3.6560 O   0  0  0  0  0  0  0  0  0  0  0  0
    1.5640   -2.9990   -2.5290 C   0  0  0  0  0  0  0  0  0  0  0  0
    1.2540   -0.5840   -2.8270 C   0  0  0  0  0  0  0  0  0  0  0  0
   -1.8700    0.6210    4.0520 O   0  0  0  0  0  0  0  0  0  0  0  0
    1.6020    1.9540    0.9570 O   0  0  0  0  0  0  0  0  0  0  0  0
    1.8450   -4.2590   -3.0350 C   0  0  0  0  0  0  0  0  0  0  0  0
    1.5530   -1.8530   -3.3580 C   0  0  0  0  0  0  0  0  0  0  0  0
    1.2570    0.4980   -3.6450 O   0  0  0  0  0  0  0  0  0  0  0  0
    2.9480   -4.5460   -3.7480 C   0  0  0  0  0  0  0  0  0  0  0  0
    3.2280   -5.8060   -4.2540 C   0  0  0  0  0  0  0  0  0  0  0  0
    3.5530   -5.9550   -5.6230 C   0  0  0  0  0  0  0  0  0  0  0  0
    3.2380   -6.9520   -3.4240 C   0  0  0  0  0  0  0  0  0  0  0  0
    3.8580   -7.2230   -6.1580 C   0  0  0  0  0  0  0  0  0  0  0  0
    3.5430   -8.2180   -3.9560 C   0  0  0  0  0  0  0  0  0  0  0  0
    3.8360   -8.3620   -5.3270 C   0  0  0  0  0  0  0  0  0  0  0  0
    4.1750   -7.3550   -7.4720 O   0  0  0  0  0  0  0  0  0  0  0  0
    4.1610   -9.5950   -5.8270 O   0  0  0  0  0  0  0  0  0  0  0  0
    3.0190  -10.3390   -6.2850 C   0  0  0  0  0  0  0  0  0  0  0  0
   -1.3830   -1.4310    0.3180 H   0  0  0  0  0  0  0  0  0  0  0  0
   -0.8400   -2.9080    2.3160 H   0  0  0  0  0  0  0  0  0  0  0  0
   -0.5990    1.9830    2.3700 H   0  0  0  0  0  0  0  0  0  0  0  0
   -0.8210   -1.6810    4.5470 H   0  0  0  0  0  0  0  0  0  0  0  0
   -2.8840   -2.2060    1.7860 H   0  0  0  0  0  0  0  0  0  0  0  0
    1.2450   -3.6660   -0.5390 H   0  0  0  0  0  0  0  0  0  0  0  0
    0.7340    0.4680   -1.0770 H   0  0  0  0  0  0  0  0  0  0  0  0
    0.1090    0.6880    4.5010 H   0  0  0  0  0  0  0  0  0  0  0  0
    1.7640    1.7760    2.9840 H   0  0  0  0  0  0  0  0  0  0  0  0
    1.9020    0.2660    2.0790 H   0  0  0  0  0  0  0  0  0  0  0  0
    1.0030   -2.5980    3.6760 H   0  0  0  0  0  0  0  0  0  0  0  0
   -1.8840    1.5970    4.1410 H   0  0  0  0  0  0  0  0  0  0  0  0
    2.5760    2.0600    0.9200 H   0  0  0  0  0  0  0  0  0  0  0  0
    1.2030   -4.9900   -2.8210 H   0  0  0  0  0  0  0  0  0  0  0  0
    1.7600   -1.9360   -4.3580 H   0  0  0  0  0  0  0  0  0  0  0  0
    1.0260    1.2630   -3.0770 H   0  0  0  0  0  0  0  0  0  0  0  0
    3.5890   -3.8150   -3.9620 H   0  0  0  0  0  0  0  0  0  0  0  0
    3.5680   -5.1380   -6.2400 H   0  0  0  0  0  0  0  0  0  0  0  0
    3.0330   -6.8730   -2.4240 H   0  0  0  0  0  0  0  0  0  0  0  0
    3.5510   -9.0360   -3.3430 H   0  0  0  0  0  0  0  0  0  0  0  0
    4.1290   -6.4530   -7.8520 H   0  0  0  0  0  0  0  0  0  0  0  0
    3.3700  -11.2980   -6.6670 H   0  0  0  0  0  0  0  0  0  0  0  0
    2.3180  -10.5340   -5.4690 H   0  0  0  0  0  0  0  0  0  0  0  0
    2.5020   -9.8180   -7.0940 H   0  0  0  0  0  0  0  0  0  0  0  0
  1  3  1  0  0  0  0
  1  4  1  0  0  0  0
  1  2  1  0  0  0  0
  1 31  1  0  0  0  0
  2  5  1  0  0  0  0
  3  6  1  0  0  0  0
  4  8  1  0  0  0  0
  4  7  1  0  0  0  0
  4 32  1  0  0  0  0
  5  9  2  0  0  0  0
  5 10  1  0  0  0  0
  6 33  1  0  0  0  0
  6 11  1  0  0  0  0
  6 12  1  0  0  0  0
  7 13  1  0  0  0  0
  7 11  1  0  0  0  0
  7 34  1  0  0  0  0
  8 35  1  0  0  0  0
  9 36  1  0  0  0  0
  9 14  1  0  0  0  0
 10 37  1  0  0  0  0
 10 15  2  0  0  0  0
 11 16  1  0  0  0  0
 11 38  1  0  0  0  0
 12 39  1  0  0  0  0
 12 17  1  0  0  0  0
 12 40  1  0  0  0  0
 13 41  1  0  0  0  0
 14 18  1  0  0  0  0
 14 19  2  0  0  0  0
 15 19  1  0  0  0  0
 15 20  1  0  0  0  0
 16 42  1  0  0  0  0
 17 43  1  0  0  0  0
 18 44  1  0  0  0  0
 18 21  2  0  0  0  0
 19 45  1  0  0  0  0
 20 46  1  0  0  0  0
 21 22  1  0  0  0  0
 21 47  1  0  0  0  0
 22 24  2  0  0  0  0
 22 23  1  0  0  0  0
 23 25  2  0  0  0  0
 23 48  1  0  0  0  0
 24 49  1  0  0  0  0
 24 26  1  0  0  0  0
 25 27  1  0  0  0  0
 25 28  1  0  0  0  0
 26 50  1  0  0  0  0
 26 27  2  0  0  0  0
 27 29  1  0  0  0  0
 28 51  1  0  0  0  0
 29 30  1  0  0  0  0
 30 53  1  0  0  0  0
 30 52  1  0  0  0  0
 30 54  1  0  0  0  0
M  END
