decoy-898
 OpenBabel06062114513D

 43 45  0  0  0  0  0  0  0  0999 V2000
    1.7480    1.0040    0.8720 N   0  0  0  0  0  0  0  0  0  0  0  0
    0.8690    0.5410    0.0040 N   0  0  0  0  0  0  0  0  0  0  0  0
    3.0750    0.6500    0.9740 C   0  0  0  0  0  0  0  0  0  0  0  0
    1.1870    1.9790    1.5700 C   0  0  0  0  0  0  0  0  0  0  0  0
    1.0410   -0.5270   -0.8480 C   0  0  0  0  0  0  0  0  0  0  0  0
   -0.2620    1.2160    0.1340 C   0  0  0  0  0  0  0  0  0  0  0  0
    3.9170    0.6830   -0.1630 C   0  0  0  0  0  0  0  0  0  0  0  0
    3.6210    0.2350    2.2120 C   0  0  0  0  0  0  0  0  0  0  0  0
   -0.1830    2.1980    1.1870 C   0  0  0  0  0  0  0  0  0  0  0  0
    1.7580    2.6900    2.3890 O   0  0  0  0  0  0  0  0  0  0  0  0
    1.4540   -1.7830   -0.3450 C   0  0  0  0  0  0  0  0  0  0  0  0
    0.8270   -0.3900   -2.2400 C   0  0  0  0  0  0  0  0  0  0  0  0
   -1.2720    1.0430   -0.5370 O   0  0  0  0  0  0  0  0  0  0  0  0
    5.2700    0.3070   -0.0650 C   0  0  0  0  0  0  0  0  0  0  0  0
    4.9730   -0.1410    2.3100 C   0  0  0  0  0  0  0  0  0  0  0  0
   -1.1720    1.9790    2.3740 C   0  0  0  0  0  0  0  0  0  0  0  0
    1.6480   -2.8750   -1.2110 C   0  0  0  0  0  0  0  0  0  0  0  0
    1.0210   -1.4820   -3.1070 C   0  0  0  0  0  0  0  0  0  0  0  0
    5.7980   -0.1060    1.1720 C   0  0  0  0  0  0  0  0  0  0  0  0
   -2.6490    2.3330    2.0480 C   0  0  0  0  0  0  0  0  0  0  0  0
    1.4320   -2.7240   -2.5920 C   0  0  0  0  0  0  0  0  0  0  0  0
   -3.5780    2.2110    3.2850 C   0  0  0  0  0  0  0  0  0  0  0  0
   -5.0490    2.5530    2.9620 C   0  0  0  0  0  0  0  0  0  0  0  0
    3.5510    0.9900   -1.0670 H   0  0  0  0  0  0  0  0  0  0  0  0
    3.0300    0.1920    3.0450 H   0  0  0  0  0  0  0  0  0  0  0  0
   -0.2930    3.2040    0.7710 H   0  0  0  0  0  0  0  0  0  0  0  0
    1.6070   -1.9110    0.6580 H   0  0  0  0  0  0  0  0  0  0  0  0
    0.5420    0.5110   -2.6310 H   0  0  0  0  0  0  0  0  0  0  0  0
    5.8700    0.3350   -0.8920 H   0  0  0  0  0  0  0  0  0  0  0  0
    5.3560   -0.4440    3.2090 H   0  0  0  0  0  0  0  0  0  0  0  0
   -1.1180    0.9400    2.7130 H   0  0  0  0  0  0  0  0  0  0  0  0
   -0.8550    2.6150    3.2070 H   0  0  0  0  0  0  0  0  0  0  0  0
    1.9460   -3.7790   -0.8360 H   0  0  0  0  0  0  0  0  0  0  0  0
    0.8680   -1.3710   -4.1120 H   0  0  0  0  0  0  0  0  0  0  0  0
    6.7800   -0.3800    1.2430 H   0  0  0  0  0  0  0  0  0  0  0  0
   -2.6950    3.3570    1.6690 H   0  0  0  0  0  0  0  0  0  0  0  0
   -3.0190    1.6630    1.2700 H   0  0  0  0  0  0  0  0  0  0  0  0
    1.5740   -3.5170   -3.2220 H   0  0  0  0  0  0  0  0  0  0  0  0
   -3.5350    1.1900    3.6720 H   0  0  0  0  0  0  0  0  0  0  0  0
   -3.2290    2.8870    4.0700 H   0  0  0  0  0  0  0  0  0  0  0  0
   -5.1310    3.5790    2.5990 H   0  0  0  0  0  0  0  0  0  0  0  0
   -5.6580    2.4540    3.8630 H   0  0  0  0  0  0  0  0  0  0  0  0
   -5.4400    1.8740    2.2020 H   0  0  0  0  0  0  0  0  0  0  0  0
  1  3  1  0  0  0  0
  1  4  1  0  0  0  0
  1  2  1  0  0  0  0
  2  6  1  0  0  0  0
  2  5  1  0  0  0  0
  3  8  2  0  0  0  0
  3  7  1  0  0  0  0
  4 10  2  0  0  0  0
  4  9  1  0  0  0  0
  5 11  2  0  0  0  0
  5 12  1  0  0  0  0
  6  9  1  0  0  0  0
  6 13  2  0  0  0  0
  7 14  2  0  0  0  0
  7 24  1  0  0  0  0
  8 15  1  0  0  0  0
  8 25  1  0  0  0  0
  9 16  1  0  0  0  0
  9 26  1  0  0  0  0
 11 27  1  0  0  0  0
 11 17  1  0  0  0  0
 12 18  2  0  0  0  0
 12 28  1  0  0  0  0
 14 19  1  0  0  0  0
 14 29  1  0  0  0  0
 15 30  1  0  0  0  0
 15 19  2  0  0  0  0
 16 31  1  0  0  0  0
 16 32  1  0  0  0  0
 16 20  1  0  0  0  0
 17 33  1  0  0  0  0
 17 21  2  0  0  0  0
 18 21  1  0  0  0  0
 18 34  1  0  0  0  0
 19 35  1  0  0  0  0
 20 22  1  0  0  0  0
 20 36  1  0  0  0  0
 20 37  1  0  0  0  0
 21 38  1  0  0  0  0
 22 39  1  0  0  0  0
 22 40  1  0  0  0  0
 22 23  1  0  0  0  0
 23 42  1  0  0  0  0
 23 41  1  0  0  0  0
 23 43  1  0  0  0  0
M  END
