decoy-954
 OpenBabel06062114513D

 43 44  0  0  0  0  0  0  0  0999 V2000
    1.2350    2.3040   -1.1240 C   0  0  0  0  0  0  0  0  0  0  0  0
    2.5950    1.9870   -0.4180 C   0  0  0  0  0  0  0  0  0  0  0  0
    1.9190    1.8970   -2.3160 C   0  0  0  0  0  0  0  0  0  0  0  0
    0.1640    1.4230   -0.7930 N   0  0  0  0  0  0  0  0  0  0  0  0
    3.0420    1.6240   -1.7150 N   0  0  0  0  0  0  0  0  0  0  0  0
    3.3390    3.1830    0.2170 C   0  0  0  0  0  0  0  0  0  0  0  0
    1.5430    1.7510   -3.4700 O   0  0  0  0  0  0  0  0  0  0  0  0
   -0.4900    1.4130    0.3570 C   0  0  0  0  0  0  0  0  0  0  0  0
    4.4630    0.9030   -2.2560 S   0  0  0  0  0  0  0  0  0  0  0  0
   -1.3060    0.3630    0.6240 C   0  0  0  0  0  0  0  0  0  0  0  0
   -0.2930    2.2490    1.2300 O   0  0  0  0  0  0  0  0  0  0  0  0
    5.5030    2.0410   -2.9470 O   0  0  0  0  0  0  0  0  0  0  0  0
    5.2210    0.1610   -0.9400 O   0  0  0  0  0  0  0  0  0  0  0  0
    4.0880   -0.3360   -3.3430 O   0  0  0  0  0  0  0  0  0  0  0  0
   -2.6810    0.5410    0.7350 C   0  0  0  0  0  0  0  0  0  0  0  0
   -0.8170   -0.8240    0.7310 N   0  0  0  0  0  0  0  0  0  0  0  0
   -3.5780   -0.3550    1.3200 C   0  0  0  0  0  0  0  0  0  0  0  0
   -3.3270    1.6300    0.2830 N   0  0  0  0  0  0  0  0  0  0  0  0
    0.4300   -1.1310    0.6680 O   0  0  0  0  0  0  0  0  0  0  0  0
   -5.2290    0.1640    1.3000 S   0  0  0  0  0  0  0  0  0  0  0  0
   -4.6490    1.5870    0.5020 C   0  0  0  0  0  0  0  0  0  0  0  0
    0.7450   -2.3590   -0.0240 C   0  0  0  0  0  0  0  0  0  0  0  0
   -5.4670    2.5810    0.1270 N   0  0  0  0  0  0  0  0  0  0  0  0
    2.2260   -2.4660    0.0880 C   0  0  0  0  0  0  0  0  0  0  0  0
    0.2940   -2.2840   -1.5170 C   0  0  0  0  0  0  0  0  0  0  0  0
    0.0980   -3.5930    0.6760 C   0  0  0  0  0  0  0  0  0  0  0  0
    2.8170   -2.4630    1.3060 O   0  0  0  0  0  0  0  0  0  0  0  0
    3.0470   -2.4970   -0.9870 O   0  0  0  0  0  0  0  0  0  0  0  0
    0.9540    3.3610   -1.1510 H   0  0  0  0  0  0  0  0  0  0  0  0
    2.5520    1.1210    0.2530 H   0  0  0  0  0  0  0  0  0  0  0  0
   -0.0430    0.7190   -1.4290 H   0  0  0  0  0  0  0  0  0  0  0  0
    3.4200    4.0130   -0.4880 H   0  0  0  0  0  0  0  0  0  0  0  0
    4.3430    2.8760    0.5140 H   0  0  0  0  0  0  0  0  0  0  0  0
    2.7990    3.5220    1.1020 H   0  0  0  0  0  0  0  0  0  0  0  0
   -3.3000   -1.2400    1.7480 H   0  0  0  0  0  0  0  0  0  0  0  0
   -6.4200    2.5170    0.3010 H   0  0  0  0  0  0  0  0  0  0  0  0
   -5.1080    3.3640   -0.3180 H   0  0  0  0  0  0  0  0  0  0  0  0
   -0.7930   -2.2060   -1.5890 H   0  0  0  0  0  0  0  0  0  0  0  0
    0.6070   -3.1770   -2.0630 H   0  0  0  0  0  0  0  0  0  0  0  0
    0.7290   -1.4080   -2.0030 H   0  0  0  0  0  0  0  0  0  0  0  0
    0.3530   -3.6110    1.7380 H   0  0  0  0  0  0  0  0  0  0  0  0
    0.4440   -4.5230    0.2190 H   0  0  0  0  0  0  0  0  0  0  0  0
   -0.9900   -3.5550    0.5920 H   0  0  0  0  0  0  0  0  0  0  0  0
  1  4  1  0  0  0  0
  1  2  1  0  0  0  0
  1  3  1  0  0  0  0
  1 29  1  0  0  0  0
  2  6  1  0  0  0  0
  2 30  1  0  0  0  0
  2  5  1  0  0  0  0
  3  5  1  0  0  0  0
  3  7  2  0  0  0  0
  4  8  1  0  0  0  0
  4 31  1  0  0  0  0
  5  9  1  0  0  0  0
  6 33  1  0  0  0  0
  6 34  1  0  0  0  0
  6 32  1  0  0  0  0
  8 10  1  0  0  0  0
  8 11  2  0  0  0  0
  9 13  2  0  0  0  0
  9 12  2  0  0  0  0
  9 14  1  0  0  0  0
 10 16  2  0  0  0  0
 10 15  1  0  0  0  0
 15 17  2  0  0  0  0
 15 18  1  0  0  0  0
 16 19  1  0  0  0  0
 17 35  1  0  0  0  0
 17 20  1  0  0  0  0
 18 21  2  0  0  0  0
 19 22  1  0  0  0  0
 20 21  1  0  0  0  0
 21 23  1  0  0  0  0
 22 24  1  0  0  0  0
 22 26  1  0  0  0  0
 22 25  1  0  0  0  0
 23 36  1  0  0  0  0
 23 37  1  0  0  0  0
 24 27  1  0  0  0  0
 24 28  2  0  0  0  0
 25 38  1  0  0  0  0
 25 39  1  0  0  0  0
 25 40  1  0  0  0  0
 26 41  1  0  0  0  0
 26 42  1  0  0  0  0
 26 43  1  0  0  0  0
M  END
