decoy-54
 OpenBabel06062114503D

 59 58  0  0  0  0  0  0  0  0999 V2000
    0.7030    0.8740   -0.2500 C   0  0  0  0  0  0  0  0  0  0  0  0
    0.2850   -0.6090   -0.0670 C   0  0  0  0  0  0  0  0  0  0  0  0
    1.9600    1.2470    0.5790 C   0  0  0  0  0  0  0  0  0  0  0  0
   -0.9660   -0.9820   -0.9100 C   0  0  0  0  0  0  0  0  0  0  0  0
    2.3720    2.7330    0.4030 C   0  0  0  0  0  0  0  0  0  0  0  0
   -1.3820   -2.3650   -0.7280 C   0  0  0  0  0  0  0  0  0  0  0  0
    3.6340    3.1040    1.2270 C   0  0  0  0  0  0  0  0  0  0  0  0
   -2.0500   -2.8790    0.3210 C   0  0  0  0  0  0  0  0  0  0  0  0
    4.0410    4.5920    1.0580 C   0  0  0  0  0  0  0  0  0  0  0  0
   -2.5450   -2.1720    1.4950 C   0  0  0  0  0  0  0  0  0  0  0  0
    5.3060    4.9610    1.8780 C   0  0  0  0  0  0  0  0  0  0  0  0
   -4.0910   -2.2580    1.6080 C   0  0  0  0  0  0  0  0  0  0  0  0
    5.7090    6.4510    1.7140 C   0  0  0  0  0  0  0  0  0  0  0  0
   -4.6400   -1.5210    2.8580 C   0  0  0  0  0  0  0  0  0  0  0  0
    6.9090    6.8550    2.4720 C   0  0  0  0  0  0  0  0  0  0  0  0
   -6.1850   -1.6090    2.9720 C   0  0  0  0  0  0  0  0  0  0  0  0
    7.3410    8.1330    2.3950 O   0  0  0  0  0  0  0  0  0  0  0  0
    7.6070    5.9940    3.2480 O   0  0  0  0  0  0  0  0  0  0  0  0
   -6.7360   -0.8640    4.2180 C   0  0  0  0  0  0  0  0  0  0  0  0
   -8.2800   -0.9570    4.3340 C   0  0  0  0  0  0  0  0  0  0  0  0
   -8.8300   -0.2070    5.5750 C   0  0  0  0  0  0  0  0  0  0  0  0
  -10.3680   -0.2990    5.6950 C   0  0  0  0  0  0  0  0  0  0  0  0
    0.9080    1.0590   -1.3090 H   0  0  0  0  0  0  0  0  0  0  0  0
   -0.1280    1.5170    0.0540 H   0  0  0  0  0  0  0  0  0  0  0  0
    1.1170   -1.2530   -0.3670 H   0  0  0  0  0  0  0  0  0  0  0  0
    0.0860   -0.7890    0.9920 H   0  0  0  0  0  0  0  0  0  0  0  0
    1.7580    1.0570    1.6370 H   0  0  0  0  0  0  0  0  0  0  0  0
    2.7920    0.6080    0.2710 H   0  0  0  0  0  0  0  0  0  0  0  0
   -1.7990   -0.3110   -0.6840 H   0  0  0  0  0  0  0  0  0  0  0  0
   -0.7180   -0.8310   -1.9650 H   0  0  0  0  0  0  0  0  0  0  0  0
    2.5690    2.9250   -0.6550 H   0  0  0  0  0  0  0  0  0  0  0  0
    1.5420    3.3720    0.7170 H   0  0  0  0  0  0  0  0  0  0  0  0
   -1.1570   -2.9950   -1.4660 H   0  0  0  0  0  0  0  0  0  0  0  0
    3.4390    2.9060    2.2850 H   0  0  0  0  0  0  0  0  0  0  0  0
    4.4650    2.4690    0.9090 H   0  0  0  0  0  0  0  0  0  0  0  0
   -2.2430   -3.8560    0.2890 H   0  0  0  0  0  0  0  0  0  0  0  0
    4.2330    4.7900    0.0000 H   0  0  0  0  0  0  0  0  0  0  0  0
    3.2100    5.2260    1.3790 H   0  0  0  0  0  0  0  0  0  0  0  0
   -2.0930   -2.6300    2.3780 H   0  0  0  0  0  0  0  0  0  0  0  0
   -2.2600   -1.1200    1.4910 H   0  0  0  0  0  0  0  0  0  0  0  0
    5.1150    4.7590    2.9360 H   0  0  0  0  0  0  0  0  0  0  0  0
    6.1370    4.3290    1.5520 H   0  0  0  0  0  0  0  0  0  0  0  0
   -4.5390   -1.8180    0.7120 H   0  0  0  0  0  0  0  0  0  0  0  0
   -4.3920   -3.3100    1.6580 H   0  0  0  0  0  0  0  0  0  0  0  0
    5.8970    6.6540    0.6560 H   0  0  0  0  0  0  0  0  0  0  0  0
    4.8790    7.0820    2.0400 H   0  0  0  0  0  0  0  0  0  0  0  0
   -4.1920   -1.9570    3.7550 H   0  0  0  0  0  0  0  0  0  0  0  0
   -4.3470   -0.4680    2.8080 H   0  0  0  0  0  0  0  0  0  0  0  0
   -6.6340   -1.1770    2.0730 H   0  0  0  0  0  0  0  0  0  0  0  0
   -6.4790   -2.6610    3.0280 H   0  0  0  0  0  0  0  0  0  0  0  0
   -6.2850   -1.2940    5.1170 H   0  0  0  0  0  0  0  0  0  0  0  0
   -6.4450    0.1890    4.1600 H   0  0  0  0  0  0  0  0  0  0  0  0
   -8.7310   -0.5310    3.4330 H   0  0  0  0  0  0  0  0  0  0  0  0
   -8.5700   -2.0090    4.3960 H   0  0  0  0  0  0  0  0  0  0  0  0
   -8.3850   -0.6280    6.4810 H   0  0  0  0  0  0  0  0  0  0  0  0
   -8.5480    0.8480    5.5170 H   0  0  0  0  0  0  0  0  0  0  0  0
  -10.7030    0.2450    6.5800 H   0  0  0  0  0  0  0  0  0  0  0  0
  -10.8450    0.1390    4.8160 H   0  0  0  0  0  0  0  0  0  0  0  0
  -10.6800   -1.3410    5.7880 H   0  0  0  0  0  0  0  0  0  0  0  0
  1  2  1  0  0  0  0
  1 24  1  0  0  0  0
  1  3  1  0  0  0  0
  1 23  1  0  0  0  0
  2 26  1  0  0  0  0
  2  4  1  0  0  0  0
  2 25  1  0  0  0  0
  3 27  1  0  0  0  0
  3  5  1  0  0  0  0
  3 28  1  0  0  0  0
  4  6  1  0  0  0  0
  4 29  1  0  0  0  0
  4 30  1  0  0  0  0
  5 32  1  0  0  0  0
  5  7  1  0  0  0  0
  5 31  1  0  0  0  0
  6  8  2  0  0  0  0
  6 33  1  0  0  0  0
  7 34  1  0  0  0  0
  7  9  1  0  0  0  0
  7 35  1  0  0  0  0
  8 10  1  0  0  0  0
  8 36  1  0  0  0  0
  9 38  1  0  0  0  0
  9 11  1  0  0  0  0
  9 37  1  0  0  0  0
 10 12  1  0  0  0  0
 10 39  1  0  0  0  0
 10 40  1  0  0  0  0
 11 41  1  0  0  0  0
 11 13  1  0  0  0  0
 11 42  1  0  0  0  0
 12 44  1  0  0  0  0
 12 14  1  0  0  0  0
 12 43  1  0  0  0  0
 13 46  1  0  0  0  0
 13 15  1  0  0  0  0
 13 45  1  0  0  0  0
 14 16  1  0  0  0  0
 14 47  1  0  0  0  0
 14 48  1  0  0  0  0
 15 18  1  0  0  0  0
 15 17  2  0  0  0  0
 16 50  1  0  0  0  0
 16 19  1  0  0  0  0
 16 49  1  0  0  0  0
 19 20  1  0  0  0  0
 19 51  1  0  0  0  0
 19 52  1  0  0  0  0
 20 54  1  0  0  0  0
 20 21  1  0  0  0  0
 20 53  1  0  0  0  0
 21 22  1  0  0  0  0
 21 55  1  0  0  0  0
 21 56  1  0  0  0  0
 22 59  1  0  0  0  0
 22 57  1  0  0  0  0
 22 58  1  0  0  0  0
M  END
