decoy-774
 OpenBabel06062114513D

 39 39  0  0  0  0  0  0  0  0999 V2000
   -0.0780    1.4310    0.0390 C   0  0  0  0  0  0  0  0  0  0  0  0
    0.0000   -0.1300    0.0880 C   0  0  0  0  0  0  0  0  0  0  0  0
    1.2410    1.9990    0.2140 O   0  0  0  0  0  0  0  0  0  0  0  0
   -0.6790    1.9910   -1.2900 C   0  0  0  0  0  0  0  0  0  0  0  0
    0.7120   -0.5860    1.3940 C   0  0  0  0  0  0  0  0  0  0  0  0
   -1.3200   -0.6950    0.0500 N   0  0  0  0  0  0  0  0  0  0  0  0
    1.9440    1.6630    1.4330 C   0  0  0  0  0  0  0  0  0  0  0  0
   -0.8240    3.5440   -1.3080 C   0  0  0  0  0  0  0  0  0  0  0  0
    0.1340    1.5910   -2.3950 O   0  0  0  0  0  0  0  0  0  0  0  0
    2.0840    0.1170    1.5550 C   0  0  0  0  0  0  0  0  0  0  0  0
    0.9120   -1.9990    1.3880 O   0  0  0  0  0  0  0  0  0  0  0  0
   -1.8150   -1.5140   -0.8680 C   0  0  0  0  0  0  0  0  0  0  0  0
    3.2760    2.3080    1.4160 C   0  0  0  0  0  0  0  0  0  0  0  0
    1.2340    2.1960    2.5540 O   0  0  0  0  0  0  0  0  0  0  0  0
   -1.4610    4.0720   -2.6180 C   0  0  0  0  0  0  0  0  0  0  0  0
   -1.6330    3.9910   -0.2190 O   0  0  0  0  0  0  0  0  0  0  0  0
   -3.1790   -1.9680   -0.7260 C   0  0  0  0  0  0  0  0  0  0  0  0
   -1.1550   -1.8900   -1.8280 O   0  0  0  0  0  0  0  0  0  0  0  0
    4.1080    2.1900    2.4750 O   0  0  0  0  0  0  0  0  0  0  0  0
    3.6970    3.0420    0.3610 O   0  0  0  0  0  0  0  0  0  0  0  0
   -1.5580    5.4920   -2.5920 O   0  0  0  0  0  0  0  0  0  0  0  0
   -0.7210    1.7610    0.8610 H   0  0  0  0  0  0  0  0  0  0  0  0
    0.6090   -0.4740   -0.7530 H   0  0  0  0  0  0  0  0  0  0  0  0
   -1.6730    1.5600   -1.4350 H   0  0  0  0  0  0  0  0  0  0  0  0
    0.0870   -0.3430    2.2590 H   0  0  0  0  0  0  0  0  0  0  0  0
   -1.9150   -0.4470    0.7750 H   0  0  0  0  0  0  0  0  0  0  0  0
    0.1640    4.0000   -1.2020 H   0  0  0  0  0  0  0  0  0  0  0  0
    0.0610    0.6150   -2.4330 H   0  0  0  0  0  0  0  0  0  0  0  0
    2.5120   -0.1460    2.5270 H   0  0  0  0  0  0  0  0  0  0  0  0
    2.7610   -0.2490    0.7770 H   0  0  0  0  0  0  0  0  0  0  0  0
    0.0120   -2.3850    1.3440 H   0  0  0  0  0  0  0  0  0  0  0  0
    1.7540    1.9310    3.3420 H   0  0  0  0  0  0  0  0  0  0  0  0
   -0.8510    3.7900   -3.4790 H   0  0  0  0  0  0  0  0  0  0  0  0
   -2.4630    3.6560   -2.7460 H   0  0  0  0  0  0  0  0  0  0  0  0
   -1.1210    3.7800    0.5890 H   0  0  0  0  0  0  0  0  0  0  0  0
   -3.4690   -2.6330   -1.5430 H   0  0  0  0  0  0  0  0  0  0  0  0
   -3.2920   -2.5090    0.2150 H   0  0  0  0  0  0  0  0  0  0  0  0
   -3.8540   -1.1100   -0.7250 H   0  0  0  0  0  0  0  0  0  0  0  0
   -1.9670    5.7330   -3.4500 H   0  0  0  0  0  0  0  0  0  0  0  0
  1  2  1  0  0  0  0
  1  3  1  0  0  0  0
  1 22  1  0  0  0  0
  1  4  1  0  0  0  0
  2  5  1  0  0  0  0
  2  6  1  0  0  0  0
  2 23  1  0  0  0  0
  3  7  1  0  0  0  0
  4 24  1  0  0  0  0
  4  8  1  0  0  0  0
  4  9  1  0  0  0  0
  5 10  1  0  0  0  0
  5 25  1  0  0  0  0
  5 11  1  0  0  0  0
  6 26  1  0  0  0  0
  6 12  1  0  0  0  0
  7 13  1  0  0  0  0
  7 10  1  0  0  0  0
  7 14  1  0  0  0  0
  8 27  1  0  0  0  0
  8 16  1  0  0  0  0
  8 15  1  0  0  0  0
  9 28  1  0  0  0  0
 10 29  1  0  0  0  0
 10 30  1  0  0  0  0
 11 31  1  0  0  0  0
 12 17  1  0  0  0  0
 12 18  2  0  0  0  0
 13 19  1  0  0  0  0
 13 20  2  0  0  0  0
 14 32  1  0  0  0  0
 15 21  1  0  0  0  0
 15 33  1  0  0  0  0
 15 34  1  0  0  0  0
 16 35  1  0  0  0  0
 17 38  1  0  0  0  0
 17 37  1  0  0  0  0
 17 36  1  0  0  0  0
 21 39  1  0  0  0  0
M  END
