decoy-1046
 OpenBabel06062114513D

 18 18  0  0  0  0  0  0  0  0999 V2000
   -0.0430    1.4060    0.0050 C   0  0  0  0  0  0  0  0  0  0  0  0
   -0.0050   -0.0090   -0.0010 C   0  0  0  0  0  0  0  0  0  0  0  0
    1.1800    2.1140   -0.0010 C   0  0  0  0  0  0  0  0  0  0  0  0
   -1.3350    2.1370    0.0180 C   0  0  0  0  0  0  0  0  0  0  0  0
    1.2210   -0.7160   -0.0140 C   0  0  0  0  0  0  0  0  0  0  0  0
    2.4060    1.4280   -0.0130 C   0  0  0  0  0  0  0  0  0  0  0  0
   -1.4880    3.2370    1.5960 Br  0  0  0  0  0  0  0  0  0  0  0  0
   -1.5120    3.2510   -1.5480 Br  0  0  0  0  0  0  0  0  0  0  0  0
    2.4260    0.0230   -0.0200 C   0  0  0  0  0  0  0  0  0  0  0  0
    1.2480   -2.2010   -0.0210 C   0  0  0  0  0  0  0  0  0  0  0  0
    2.1320   -2.8650   -1.6030 Br  0  0  0  0  0  0  0  0  0  0  0  0
    2.1560   -2.8790    1.5420 Br  0  0  0  0  0  0  0  0  0  0  0  0
   -0.8840   -0.5330    0.0030 H   0  0  0  0  0  0  0  0  0  0  0  0
    1.1870    3.1370    0.0030 H   0  0  0  0  0  0  0  0  0  0  0  0
   -2.1840    1.4500    0.0210 H   0  0  0  0  0  0  0  0  0  0  0  0
    3.2850    1.9510   -0.0180 H   0  0  0  0  0  0  0  0  0  0  0  0
    3.3280   -0.4590   -0.0290 H   0  0  0  0  0  0  0  0  0  0  0  0
    0.2400   -2.6200   -0.0150 H   0  0  0  0  0  0  0  0  0  0  0  0
  1  4  1  0  0  0  0
  1  2  2  0  0  0  0
  1  3  1  0  0  0  0
  2 13  1  0  0  0  0
  2  5  1  0  0  0  0
  3 14  1  0  0  0  0
  3  6  2  0  0  0  0
  4 15  1  0  0  0  0
  4  7  1  0  0  0  0
  4  8  1  0  0  0  0
  5  9  2  0  0  0  0
  5 10  1  0  0  0  0
  6  9  1  0  0  0  0
  6 16  1  0  0  0  0
  9 17  1  0  0  0  0
 10 18  1  0  0  0  0
 10 12  1  0  0  0  0
 10 11  1  0  0  0  0
M  END
