decoy-645
 OpenBabel06062114513D

 62 65  0  0  0  0  0  0  0  0999 V2000
   -3.2810    0.5060    0.8350 C   0  0  0  0  0  0  0  0  0  0  0  0
   -2.0050    1.4440    0.8810 C   0  0  0  0  0  0  0  0  0  0  0  0
   -3.5730    0.4430   -0.7100 C   0  0  0  0  0  0  0  0  0  0  0  0
   -2.9390   -0.7890    1.3920 O   0  0  0  0  0  0  0  0  0  0  0  0
   -4.4520    0.9160    1.6410 C   0  0  0  0  0  0  0  0  0  0  0  0
   -1.1910    0.8550   -0.3220 C   0  0  0  0  0  0  0  0  0  0  0  0
   -1.0690    1.3300    2.1380 C   0  0  0  0  0  0  0  0  0  0  0  0
   -2.4260    2.9570    0.6980 C   0  0  0  0  0  0  0  0  0  0  0  0
   -2.2320    0.6810   -1.4480 C   0  0  0  0  0  0  0  0  0  0  0  0
   -2.7040   -2.0690    0.9920 C   0  0  0  0  0  0  0  0  0  0  0  0
   -4.4170    1.0490    3.0910 C   0  0  0  0  0  0  0  0  0  0  0  0
   -5.5530    1.0310    1.1160 O   0  0  0  0  0  0  0  0  0  0  0  0
    0.1470    1.6110   -0.6140 C   0  0  0  0  0  0  0  0  0  0  0  0
    0.3300    1.9950    1.9440 C   0  0  0  0  0  0  0  0  0  0  0  0
   -2.3850   -3.0590    2.0270 C   0  0  0  0  0  0  0  0  0  0  0  0
   -2.6940   -2.4450   -0.3070 O   0  0  0  0  0  0  0  0  0  0  0  0
    1.0930    1.5320    0.6510 C   0  0  0  0  0  0  0  0  0  0  0  0
    0.8720    1.0590   -1.8790 C   0  0  0  0  0  0  0  0  0  0  0  0
    2.5190    2.1970    0.3910 C   0  0  0  0  0  0  0  0  0  0  0  0
    2.2580    1.7330   -2.1100 C   0  0  0  0  0  0  0  0  0  0  0  0
    3.0600    1.5730   -0.8700 C   0  0  0  0  0  0  0  0  0  0  0  0
    3.5260    1.9730    1.5970 C   0  0  0  0  0  0  0  0  0  0  0  0
    2.4150    3.7620    0.2490 C   0  0  0  0  0  0  0  0  0  0  0  0
    2.8530    1.2620   -3.4720 C   0  0  0  0  0  0  0  0  0  0  0  0
    4.1100    0.7120   -0.8370 C   0  0  0  0  0  0  0  0  0  0  0  0
    4.1450    0.5570    1.6000 C   0  0  0  0  0  0  0  0  0  0  0  0
    4.7460    0.3290    0.3010 C   0  0  0  0  0  0  0  0  0  0  0  0
    5.8650   -0.1650    0.2350 O   0  0  0  0  0  0  0  0  0  0  0  0
   -0.8810   -0.1670   -0.0670 H   0  0  0  0  0  0  0  0  0  0  0  0
   -0.0970    2.6510   -0.8300 H   0  0  0  0  0  0  0  0  0  0  0  0
    1.2850    0.4650    0.8120 H   0  0  0  0  0  0  0  0  0  0  0  0
   -4.0380   -0.4980   -1.0010 H   0  0  0  0  0  0  0  0  0  0  0  0
   -4.2640    1.2350   -1.0140 H   0  0  0  0  0  0  0  0  0  0  0  0
   -1.5440    1.7850    3.0080 H   0  0  0  0  0  0  0  0  0  0  0  0
   -0.9000    0.2790    2.3860 H   0  0  0  0  0  0  0  0  0  0  0  0
   -3.0400    3.1090   -0.1890 H   0  0  0  0  0  0  0  0  0  0  0  0
   -1.5710    3.6230    0.6060 H   0  0  0  0  0  0  0  0  0  0  0  0
   -3.0020    3.3010    1.5570 H   0  0  0  0  0  0  0  0  0  0  0  0
   -1.9820   -0.1660   -2.0930 H   0  0  0  0  0  0  0  0  0  0  0  0
   -2.2830    1.5840   -2.0640 H   0  0  0  0  0  0  0  0  0  0  0  0
   -3.9670    0.1680    3.5490 H   0  0  0  0  0  0  0  0  0  0  0  0
   -5.4210    1.1630    3.5100 H   0  0  0  0  0  0  0  0  0  0  0  0
   -3.8450    1.9290    3.3760 H   0  0  0  0  0  0  0  0  0  0  0  0
    0.2160    3.0790    1.9400 H   0  0  0  0  0  0  0  0  0  0  0  0
    0.9110    1.7400    2.8300 H   0  0  0  0  0  0  0  0  0  0  0  0
   -1.4950   -2.7440    2.5720 H   0  0  0  0  0  0  0  0  0  0  0  0
   -2.1990   -4.0400    1.5850 H   0  0  0  0  0  0  0  0  0  0  0  0
   -3.2210   -3.1410    2.7230 H   0  0  0  0  0  0  0  0  0  0  0  0
    1.0080   -0.0230   -1.7800 H   0  0  0  0  0  0  0  0  0  0  0  0
    0.2390    1.2360   -2.7530 H   0  0  0  0  0  0  0  0  0  0  0  0
    2.0900    2.8010   -2.2640 H   0  0  0  0  0  0  0  0  0  0  0  0
    4.3640    2.6760    1.5230 H   0  0  0  0  0  0  0  0  0  0  0  0
    3.0650    2.1660    2.5650 H   0  0  0  0  0  0  0  0  0  0  0  0
    1.6240    4.0790   -0.4270 H   0  0  0  0  0  0  0  0  0  0  0  0
    3.3540    4.1740   -0.1290 H   0  0  0  0  0  0  0  0  0  0  0  0
    2.2130    4.2310    1.2140 H   0  0  0  0  0  0  0  0  0  0  0  0
    2.9500    0.1750   -3.5080 H   0  0  0  0  0  0  0  0  0  0  0  0
    3.8350    1.7130   -3.6320 H   0  0  0  0  0  0  0  0  0  0  0  0
    2.2060    1.5710   -4.2970 H   0  0  0  0  0  0  0  0  0  0  0  0
    4.4350    0.2950   -1.6750 H   0  0  0  0  0  0  0  0  0  0  0  0
    4.8860    0.4790    2.4010 H   0  0  0  0  0  0  0  0  0  0  0  0
    3.3730   -0.1940    1.7810 H   0  0  0  0  0  0  0  0  0  0  0  0
  1  2  1  0  0  0  0
  1  4  1  0  0  0  0
  1  5  1  0  0  0  0
  1  3  1  0  0  0  0
  2  6  1  0  0  0  0
  2  7  1  0  0  0  0
  2  8  1  0  0  0  0
  3  9  1  0  0  0  0
  3 32  1  0  0  0  0
  3 33  1  0  0  0  0
  4 10  1  0  0  0  0
  5 11  1  0  0  0  0
  5 12  2  0  0  0  0
  6 13  1  0  0  0  0
  6 29  1  0  0  0  0
  6  9  1  0  0  0  0
  7 35  1  0  0  0  0
  7 34  1  0  0  0  0
  7 14  1  0  0  0  0
  8 38  1  0  0  0  0
  8 36  1  0  0  0  0
  8 37  1  0  0  0  0
  9 39  1  0  0  0  0
  9 40  1  0  0  0  0
 10 15  1  0  0  0  0
 10 16  2  0  0  0  0
 11 43  1  0  0  0  0
 11 42  1  0  0  0  0
 11 41  1  0  0  0  0
 13 17  1  0  0  0  0
 13 18  1  0  0  0  0
 13 30  1  0  0  0  0
 14 45  1  0  0  0  0
 14 17  1  0  0  0  0
 14 44  1  0  0  0  0
 15 46  1  0  0  0  0
 15 48  1  0  0  0  0
 15 47  1  0  0  0  0
 17 19  1  0  0  0  0
 17 31  1  0  0  0  0
 18 49  1  0  0  0  0
 18 20  1  0  0  0  0
 18 50  1  0  0  0  0
 19 23  1  0  0  0  0
 19 22  1  0  0  0  0
 19 21  1  0  0  0  0
 20 51  1  0  0  0  0
 20 21  1  0  0  0  0
 20 24  1  0  0  0  0
 21 25  2  0  0  0  0
 22 26  1  0  0  0  0
 22 53  1  0  0  0  0
 22 52  1  0  0  0  0
 23 56  1  0  0  0  0
 23 54  1  0  0  0  0
 23 55  1  0  0  0  0
 24 57  1  0  0  0  0
 24 58  1  0  0  0  0
 24 59  1  0  0  0  0
 25 27  1  0  0  0  0
 25 60  1  0  0  0  0
 26 62  1  0  0  0  0
 26 61  1  0  0  0  0
 26 27  1  0  0  0  0
 27 28  2  0  0  0  0
M  END
