decoy-127
 OpenBabel06062114503D

 29 30  0  0  0  0  0  0  0  0999 V2000
   -0.2170    1.5710   -0.0590 C   0  0  0  0  0  0  0  0  0  0  0  0
   -0.1050    0.1680   -0.1660 C   0  0  0  0  0  0  0  0  0  0  0  0
    0.9220    2.2910   -0.2000 N   0  0  0  0  0  0  0  0  0  0  0  0
   -1.4900    2.1340    0.1870 C   0  0  0  0  0  0  0  0  0  0  0  0
   -1.2300   -0.6830   -0.0350 C   0  0  0  0  0  0  0  0  0  0  0  0
    1.1750    3.5850   -0.1600 C   0  0  0  0  0  0  0  0  0  0  0  0
   -2.6190    1.3080    0.3210 C   0  0  0  0  0  0  0  0  0  0  0  0
   -2.4910   -0.0880    0.2110 C   0  0  0  0  0  0  0  0  0  0  0  0
   -1.0540   -2.1580   -0.1570 C   0  0  0  0  0  0  0  0  0  0  0  0
    2.4550    4.0600   -0.3780 C   0  0  0  0  0  0  0  0  0  0  0  0
   -2.2120   -2.8870   -0.0120 F   0  0  0  0  0  0  0  0  0  0  0  0
   -0.5410   -2.4690   -1.3930 F   0  0  0  0  0  0  0  0  0  0  0  0
   -0.1790   -2.6080    0.8030 F   0  0  0  0  0  0  0  0  0  0  0  0
    3.5890    3.5220    0.2870 C   0  0  0  0  0  0  0  0  0  0  0  0
    2.6410    5.1240   -1.2940 C   0  0  0  0  0  0  0  0  0  0  0  0
    4.8750    4.0320    0.0160 C   0  0  0  0  0  0  0  0  0  0  0  0
    3.4970    2.5260    1.2070 O   0  0  0  0  0  0  0  0  0  0  0  0
    3.9270    5.6300   -1.5560 C   0  0  0  0  0  0  0  0  0  0  0  0
    5.0440    5.0820   -0.9030 C   0  0  0  0  0  0  0  0  0  0  0  0
    0.8160   -0.2440   -0.3440 H   0  0  0  0  0  0  0  0  0  0  0  0
   -1.6110    3.1440    0.2720 H   0  0  0  0  0  0  0  0  0  0  0  0
    0.4370    4.2370   -0.0350 H   0  0  0  0  0  0  0  0  0  0  0  0
   -3.5370    1.7230    0.4990 H   0  0  0  0  0  0  0  0  0  0  0  0
   -3.3300   -0.6620    0.3130 H   0  0  0  0  0  0  0  0  0  0  0  0
    1.8420    5.5350   -1.7860 H   0  0  0  0  0  0  0  0  0  0  0  0
    5.6920    3.6450    0.4930 H   0  0  0  0  0  0  0  0  0  0  0  0
    2.5640    2.5190    1.5070 H   0  0  0  0  0  0  0  0  0  0  0  0
    4.0500    6.3950   -2.2230 H   0  0  0  0  0  0  0  0  0  0  0  0
    5.9790    5.4500   -1.0940 H   0  0  0  0  0  0  0  0  0  0  0  0
  1  4  2  0  0  0  0
  1  2  1  0  0  0  0
  1  3  1  0  0  0  0
  2  5  2  0  0  0  0
  2 20  1  0  0  0  0
  3  6  2  0  0  0  0
  4 21  1  0  0  0  0
  4  7  1  0  0  0  0
  5  8  1  0  0  0  0
  5  9  1  0  0  0  0
  6 22  1  0  0  0  0
  6 10  1  0  0  0  0
  7 23  1  0  0  0  0
  7  8  2  0  0  0  0
  8 24  1  0  0  0  0
  9 11  1  0  0  0  0
  9 13  1  0  0  0  0
  9 12  1  0  0  0  0
 10 14  2  0  0  0  0
 10 15  1  0  0  0  0
 14 17  1  0  0  0  0
 14 16  1  0  0  0  0
 15 18  2  0  0  0  0
 15 25  1  0  0  0  0
 16 26  1  0  0  0  0
 16 19  2  0  0  0  0
 17 27  1  0  0  0  0
 18 19  1  0  0  0  0
 18 28  1  0  0  0  0
 19 29  1  0  0  0  0
M  END
