decoy-126
 OpenBabel06062114503D

 62 61  0  0  0  0  0  0  0  0999 V2000
    0.0020    1.5360    0.0090 C   0  0  0  0  0  0  0  0  0  0  0  0
   -0.0210   -0.0150    0.0010 C   0  0  0  0  0  0  0  0  0  0  0  0
    1.4430    2.1120   -0.0020 C   0  0  0  0  0  0  0  0  0  0  0  0
   -1.4610   -0.5910    0.0120 C   0  0  0  0  0  0  0  0  0  0  0  0
    1.4660    3.6640    0.0070 C   0  0  0  0  0  0  0  0  0  0  0  0
   -1.4840   -2.1430    0.0040 C   0  0  0  0  0  0  0  0  0  0  0  0
    2.9070    4.2400   -0.0040 C   0  0  0  0  0  0  0  0  0  0  0  0
   -2.9250   -2.7190    0.0140 C   0  0  0  0  0  0  0  0  0  0  0  0
    2.9300    5.7910    0.0040 C   0  0  0  0  0  0  0  0  0  0  0  0
   -2.9480   -4.2700    0.0060 C   0  0  0  0  0  0  0  0  0  0  0  0
    4.3710    6.3670   -0.0070 C   0  0  0  0  0  0  0  0  0  0  0  0
   -4.3890   -4.8460    0.0170 C   0  0  0  0  0  0  0  0  0  0  0  0
    4.3930    7.9190    0.0020 C   0  0  0  0  0  0  0  0  0  0  0  0
   -4.4120   -6.3980    0.0080 C   0  0  0  0  0  0  0  0  0  0  0  0
    5.8340    8.4950   -0.0090 C   0  0  0  0  0  0  0  0  0  0  0  0
   -5.8530   -6.9730    0.0190 C   0  0  0  0  0  0  0  0  0  0  0  0
    5.8560   10.0460   -0.0010 C   0  0  0  0  0  0  0  0  0  0  0  0
   -5.8750   -8.5240    0.0110 C   0  0  0  0  0  0  0  0  0  0  0  0
    7.2900   10.6200   -0.0120 C   0  0  0  0  0  0  0  0  0  0  0  0
   -7.3080   -9.1010    0.0220 C   0  0  0  0  0  0  0  0  0  0  0  0
    7.2420   12.5490    0.0000 Br  0  0  0  0  0  0  0  0  0  0  0  0
   -0.5350    1.9050   -0.8690 H   0  0  0  0  0  0  0  0  0  0  0  0
   -0.5180    1.8950    0.9020 H   0  0  0  0  0  0  0  0  0  0  0  0
    0.4990   -0.3740   -0.8920 H   0  0  0  0  0  0  0  0  0  0  0  0
    0.5170   -0.3840    0.8800 H   0  0  0  0  0  0  0  0  0  0  0  0
    1.9800    1.7440    0.8770 H   0  0  0  0  0  0  0  0  0  0  0  0
    1.9630    1.7530   -0.8940 H   0  0  0  0  0  0  0  0  0  0  0  0
   -1.9810   -0.2320    0.9050 H   0  0  0  0  0  0  0  0  0  0  0  0
   -1.9990   -0.2230   -0.8670 H   0  0  0  0  0  0  0  0  0  0  0  0
    0.9290    4.0320   -0.8720 H   0  0  0  0  0  0  0  0  0  0  0  0
    0.9460    4.0220    0.9000 H   0  0  0  0  0  0  0  0  0  0  0  0
   -0.9640   -2.5010   -0.8890 H   0  0  0  0  0  0  0  0  0  0  0  0
   -0.9470   -2.5110    0.8820 H   0  0  0  0  0  0  0  0  0  0  0  0
    3.4440    3.8710    0.8740 H   0  0  0  0  0  0  0  0  0  0  0  0
    3.4270    3.8810   -0.8970 H   0  0  0  0  0  0  0  0  0  0  0  0
   -3.4450   -2.3600    0.9070 H   0  0  0  0  0  0  0  0  0  0  0  0
   -3.4620   -2.3500   -0.8640 H   0  0  0  0  0  0  0  0  0  0  0  0
    2.3920    6.1600   -0.8740 H   0  0  0  0  0  0  0  0  0  0  0  0
    2.4100    6.1500    0.8970 H   0  0  0  0  0  0  0  0  0  0  0  0
   -2.4280   -4.6290   -0.8870 H   0  0  0  0  0  0  0  0  0  0  0  0
   -2.4110   -4.6390    0.8840 H   0  0  0  0  0  0  0  0  0  0  0  0
    4.9080    5.9990    0.8720 H   0  0  0  0  0  0  0  0  0  0  0  0
    4.8900    6.0080   -0.8990 H   0  0  0  0  0  0  0  0  0  0  0  0
   -4.9090   -4.4870    0.9100 H   0  0  0  0  0  0  0  0  0  0  0  0
   -4.9260   -4.4770   -0.8620 H   0  0  0  0  0  0  0  0  0  0  0  0
    3.8560    8.2870   -0.8770 H   0  0  0  0  0  0  0  0  0  0  0  0
    3.8740    8.2770    0.8950 H   0  0  0  0  0  0  0  0  0  0  0  0
   -3.8920   -6.7560   -0.8850 H   0  0  0  0  0  0  0  0  0  0  0  0
   -3.8750   -6.7660    0.8870 H   0  0  0  0  0  0  0  0  0  0  0  0
    6.3720    8.1270    0.8690 H   0  0  0  0  0  0  0  0  0  0  0  0
    6.3540    8.1360   -0.9020 H   0  0  0  0  0  0  0  0  0  0  0  0
   -6.3730   -6.6150    0.9120 H   0  0  0  0  0  0  0  0  0  0  0  0
   -6.3900   -6.6050   -0.8590 H   0  0  0  0  0  0  0  0  0  0  0  0
    5.3230   10.4190   -0.8790 H   0  0  0  0  0  0  0  0  0  0  0  0
    5.3400   10.4090    0.8920 H   0  0  0  0  0  0  0  0  0  0  0  0
   -5.3590   -8.8900   -0.8820 H   0  0  0  0  0  0  0  0  0  0  0  0
   -5.3420   -8.9000    0.8890 H   0  0  0  0  0  0  0  0  0  0  0  0
    7.8400   10.2830    0.8690 H   0  0  0  0  0  0  0  0  0  0  0  0
    7.8220   10.2930   -0.9070 H   0  0  0  0  0  0  0  0  0  0  0  0
   -7.2670  -10.1920    0.0150 H   0  0  0  0  0  0  0  0  0  0  0  0
   -7.8410   -8.7780    0.9180 H   0  0  0  0  0  0  0  0  0  0  0  0
   -7.8590   -8.7680   -0.8600 H   0  0  0  0  0  0  0  0  0  0  0  0
  1 23  1  0  0  0  0
  1  2  1  0  0  0  0
  1  3  1  0  0  0  0
  1 22  1  0  0  0  0
  2  4  1  0  0  0  0
  2 25  1  0  0  0  0
  2 24  1  0  0  0  0
  3  5  1  0  0  0  0
  3 26  1  0  0  0  0
  3 27  1  0  0  0  0
  4 28  1  0  0  0  0
  4  6  1  0  0  0  0
  4 29  1  0  0  0  0
  5 31  1  0  0  0  0
  5  7  1  0  0  0  0
  5 30  1  0  0  0  0
  6  8  1  0  0  0  0
  6 33  1  0  0  0  0
  6 32  1  0  0  0  0
  7  9  1  0  0  0  0
  7 34  1  0  0  0  0
  7 35  1  0  0  0  0
  8 36  1  0  0  0  0
  8 10  1  0  0  0  0
  8 37  1  0  0  0  0
  9 39  1  0  0  0  0
  9 11  1  0  0  0  0
  9 38  1  0  0  0  0
 10 12  1  0  0  0  0
 10 41  1  0  0  0  0
 10 40  1  0  0  0  0
 11 13  1  0  0  0  0
 11 42  1  0  0  0  0
 11 43  1  0  0  0  0
 12 44  1  0  0  0  0
 12 14  1  0  0  0  0
 12 45  1  0  0  0  0
 13 47  1  0  0  0  0
 13 15  1  0  0  0  0
 13 46  1  0  0  0  0
 14 16  1  0  0  0  0
 14 49  1  0  0  0  0
 14 48  1  0  0  0  0
 15 17  1  0  0  0  0
 15 50  1  0  0  0  0
 15 51  1  0  0  0  0
 16 52  1  0  0  0  0
 16 18  1  0  0  0  0
 16 53  1  0  0  0  0
 17 55  1  0  0  0  0
 17 19  1  0  0  0  0
 17 54  1  0  0  0  0
 18 20  1  0  0  0  0
 18 57  1  0  0  0  0
 18 56  1  0  0  0  0
 19 21  1  0  0  0  0
 19 58  1  0  0  0  0
 19 59  1  0  0  0  0
 20 61  1  0  0  0  0
 20 60  1  0  0  0  0
 20 62  1  0  0  0  0
M  END
