decoy-143
 OpenBabel06062114503D

 67 70  0  0  0  0  0  0  0  0999 V2000
   -0.4770    2.0560   -0.2140 C   0  0  0  0  0  0  0  0  0  0  0  0
   -0.6740    0.5010   -0.4070 C   0  0  0  0  0  0  0  0  0  0  0  0
    1.0190    2.4320   -0.4800 C   0  0  0  0  0  0  0  0  0  0  0  0
   -0.9450    2.5180    1.1990 C   0  0  0  0  0  0  0  0  0  0  0  0
   -2.1600    0.0150   -0.0950 C   0  0  0  0  0  0  0  0  0  0  0  0
   -0.0740    0.0220   -1.7760 C   0  0  0  0  0  0  0  0  0  0  0  0
    1.5350    2.0810   -1.9190 C   0  0  0  0  0  0  0  0  0  0  0  0
    1.4790    3.8850   -0.2640 C   0  0  0  0  0  0  0  0  0  0  0  0
   -2.3880    2.0550    1.5280 C   0  0  0  0  0  0  0  0  0  0  0  0
   -2.5820    0.5120    1.3540 C   0  0  0  0  0  0  0  0  0  0  0  0
   -2.3250   -1.5560   -0.1320 C   0  0  0  0  0  0  0  0  0  0  0  0
   -3.1760    0.5610   -1.1680 C   0  0  0  0  0  0  0  0  0  0  0  0
    1.3750    0.5250   -2.0540 C   0  0  0  0  0  0  0  0  0  0  0  0
    3.0140    2.6300   -1.8270 C   0  0  0  0  0  0  0  0  0  0  0  0
    0.7540    2.8020   -3.0830 C   0  0  0  0  0  0  0  0  0  0  0  0
    2.8370    3.9500   -1.0010 C   0  0  0  0  0  0  0  0  0  0  0  0
   -2.7380    2.4800    2.8450 O   0  0  0  0  0  0  0  0  0  0  0  0
   -1.8940   -0.2880    2.5170 C   0  0  0  0  0  0  0  0  0  0  0  0
   -1.5960   -2.3220    1.0000 C   0  0  0  0  0  0  0  0  0  0  0  0
    3.9050    2.8220   -3.1220 C   0  0  0  0  0  0  0  0  0  0  0  0
   -2.0680   -1.8210    2.3850 C   0  0  0  0  0  0  0  0  0  0  0  0
    5.3400    3.3640   -2.7770 C   0  0  0  0  0  0  0  0  0  0  0  0
    4.0260    1.5110   -3.9580 C   0  0  0  0  0  0  0  0  0  0  0  0
   -1.3300   -2.4880    3.4070 O   0  0  0  0  0  0  0  0  0  0  0  0
    6.1290    3.9880   -3.9670 C   0  0  0  0  0  0  0  0  0  0  0  0
    7.4240    4.5960   -3.6020 C   0  0  0  0  0  0  0  0  0  0  0  0
    8.1740    5.1820   -4.5620 O   0  0  0  0  0  0  0  0  0  0  0  0
    7.9150    4.5720   -2.3410 O   0  0  0  0  0  0  0  0  0  0  0  0
   -1.0900    2.5970   -0.9350 H   0  0  0  0  0  0  0  0  0  0  0  0
   -0.0320    0.0320    0.3420 H   0  0  0  0  0  0  0  0  0  0  0  0
    1.5950    1.8440    0.2490 H   0  0  0  0  0  0  0  0  0  0  0  0
   -3.6560    0.3270    1.4730 H   0  0  0  0  0  0  0  0  0  0  0  0
   -0.2570    2.1440    1.9600 H   0  0  0  0  0  0  0  0  0  0  0  0
   -0.9210    3.6110    1.2470 H   0  0  0  0  0  0  0  0  0  0  0  0
   -0.0360   -1.0680   -1.7990 H   0  0  0  0  0  0  0  0  0  0  0  0
   -0.7180    0.3370   -2.5970 H   0  0  0  0  0  0  0  0  0  0  0  0
    0.7610    4.5860   -0.7000 H   0  0  0  0  0  0  0  0  0  0  0  0
    1.5920    4.1160    0.7990 H   0  0  0  0  0  0  0  0  0  0  0  0
   -3.0760    2.5770    0.8590 H   0  0  0  0  0  0  0  0  0  0  0  0
   -3.3870   -1.8110   -0.0470 H   0  0  0  0  0  0  0  0  0  0  0  0
   -1.9970   -1.9610   -1.0900 H   0  0  0  0  0  0  0  0  0  0  0  0
   -3.1160    1.6390   -1.2930 H   0  0  0  0  0  0  0  0  0  0  0  0
   -3.0010    0.1080   -2.1450 H   0  0  0  0  0  0  0  0  0  0  0  0
   -4.2050    0.3270   -0.8850 H   0  0  0  0  0  0  0  0  0  0  0  0
    2.0520    0.0220   -1.3570 H   0  0  0  0  0  0  0  0  0  0  0  0
    1.6510    0.1920   -3.0540 H   0  0  0  0  0  0  0  0  0  0  0  0
    3.5750    1.9340   -1.1900 H   0  0  0  0  0  0  0  0  0  0  0  0
    0.8670    3.8850   -3.0370 H   0  0  0  0  0  0  0  0  0  0  0  0
    1.1210    2.4770   -4.0550 H   0  0  0  0  0  0  0  0  0  0  0  0
   -0.3130    2.5890   -3.0640 H   0  0  0  0  0  0  0  0  0  0  0  0
    2.8490    4.8300   -1.6500 H   0  0  0  0  0  0  0  0  0  0  0  0
    3.6450    4.0530   -0.2710 H   0  0  0  0  0  0  0  0  0  0  0  0
   -2.6440    3.4560    2.8340 H   0  0  0  0  0  0  0  0  0  0  0  0
   -0.8270   -0.0650    2.5600 H   0  0  0  0  0  0  0  0  0  0  0  0
   -2.3270    0.0140    3.4740 H   0  0  0  0  0  0  0  0  0  0  0  0
   -1.8180   -3.3890    0.9120 H   0  0  0  0  0  0  0  0  0  0  0  0
   -0.5150   -2.2030    0.9030 H   0  0  0  0  0  0  0  0  0  0  0  0
    3.4170    3.5690   -3.7540 H   0  0  0  0  0  0  0  0  0  0  0  0
   -3.1230   -2.0760    2.5190 H   0  0  0  0  0  0  0  0  0  0  0  0
    5.2610    4.1510   -2.0260 H   0  0  0  0  0  0  0  0  0  0  0  0
    5.9330    2.5580   -2.3360 H   0  0  0  0  0  0  0  0  0  0  0  0
    3.0820    1.2680   -4.4380 H   0  0  0  0  0  0  0  0  0  0  0  0
    4.7530    1.6080   -4.7620 H   0  0  0  0  0  0  0  0  0  0  0  0
    4.3290    0.6770   -3.3230 H   0  0  0  0  0  0  0  0  0  0  0  0
   -1.7070   -2.1590    4.2500 H   0  0  0  0  0  0  0  0  0  0  0  0
    6.3360    3.2280   -4.7190 H   0  0  0  0  0  0  0  0  0  0  0  0
    5.5150    4.7650   -4.4280 H   0  0  0  0  0  0  0  0  0  0  0  0
  1  3  1  0  0  0  0
  1  4  1  0  0  0  0
  1  2  1  0  0  0  0
  1 29  1  0  0  0  0
  2 30  1  0  0  0  0
  2  5  1  0  0  0  0
  2  6  1  0  0  0  0
  3  7  1  0  0  0  0
  3  8  1  0  0  0  0
  3 31  1  0  0  0  0
  4 34  1  0  0  0  0
  4  9  1  0  0  0  0
  4 33  1  0  0  0  0
  5 10  1  0  0  0  0
  5 11  1  0  0  0  0
  5 12  1  0  0  0  0
  6 13  1  0  0  0  0
  6 35  1  0  0  0  0
  6 36  1  0  0  0  0
  7 14  1  0  0  0  0
  7 13  1  0  0  0  0
  7 15  1  0  0  0  0
  8 38  1  0  0  0  0
  8 16  1  0  0  0  0
  8 37  1  0  0  0  0
  9 10  1  0  0  0  0
  9 17  1  0  0  0  0
  9 39  1  0  0  0  0
 10 32  1  0  0  0  0
 10 18  1  0  0  0  0
 11 40  1  0  0  0  0
 11 19  1  0  0  0  0
 11 41  1  0  0  0  0
 12 44  1  0  0  0  0
 12 42  1  0  0  0  0
 12 43  1  0  0  0  0
 13 45  1  0  0  0  0
 13 46  1  0  0  0  0
 14 47  1  0  0  0  0
 14 16  1  0  0  0  0
 14 20  1  0  0  0  0
 15 50  1  0  0  0  0
 15 48  1  0  0  0  0
 15 49  1  0  0  0  0
 16 52  1  0  0  0  0
 16 51  1  0  0  0  0
 17 53  1  0  0  0  0
 18 54  1  0  0  0  0
 18 55  1  0  0  0  0
 18 21  1  0  0  0  0
 19 21  1  0  0  0  0
 19 56  1  0  0  0  0
 19 57  1  0  0  0  0
 20 58  1  0  0  0  0
 20 22  1  0  0  0  0
 20 23  1  0  0  0  0
 21 59  1  0  0  0  0
 21 24  1  0  0  0  0
 22 61  1  0  0  0  0
 22 60  1  0  0  0  0
 22 25  1  0  0  0  0
 23 64  1  0  0  0  0
 23 62  1  0  0  0  0
 23 63  1  0  0  0  0
 24 65  1  0  0  0  0
 25 26  1  0  0  0  0
 25 66  1  0  0  0  0
 25 67  1  0  0  0  0
 26 28  1  0  0  0  0
 26 27  2  0  0  0  0
M  END
