decoy-117
 OpenBabel06062114503D

 52 52  0  0  0  0  0  0  0  0999 V2000
   -0.2410    1.8200   -0.1450 C   0  0  0  0  0  0  0  0  0  0  0  0
   -0.9750    1.4220    1.2000 C   0  0  0  0  0  0  0  0  0  0  0  0
    0.8350    0.7140   -0.3420 C   0  0  0  0  0  0  0  0  0  0  0  0
   -1.0910    2.0940   -1.3090 C   0  0  0  0  0  0  0  0  0  0  0  0
   -0.3110    0.1470    1.6310 C   0  0  0  0  0  0  0  0  0  0  0  0
   -0.6780    2.4730    2.3180 C   0  0  0  0  0  0  0  0  0  0  0  0
   -2.5380    1.2900    1.0960 C   0  0  0  0  0  0  0  0  0  0  0  0
    0.3620   -0.5120    0.4790 C   0  0  0  0  0  0  0  0  0  0  0  0
   -1.7630    3.2370   -1.3490 N   0  0  0  0  0  0  0  0  0  0  0  0
   -1.1860    1.2960   -2.2340 O   0  0  0  0  0  0  0  0  0  0  0  0
   -1.0800   -0.6970    2.3790 O   0  0  0  0  0  0  0  0  0  0  0  0
   -0.5650   -1.4500   -0.3620 C   0  0  0  0  0  0  0  0  0  0  0  0
    1.5790   -1.3430    0.9930 C   0  0  0  0  0  0  0  0  0  0  0  0
   -2.6370    3.6590   -2.3970 C   0  0  0  0  0  0  0  0  0  0  0  0
   -3.2490    5.0390   -2.0810 C   0  0  0  0  0  0  0  0  0  0  0  0
   -2.2010    6.0190   -1.9660 O   0  0  0  0  0  0  0  0  0  0  0  0
   -2.6530    7.3530   -1.6650 C   0  0  0  0  0  0  0  0  0  0  0  0
   -1.4400    8.3020   -1.5660 C   0  0  0  0  0  0  0  0  0  0  0  0
   -0.7350    8.3630   -2.8080 N   0  0  0  0  0  0  0  0  0  0  0  0
    0.3520    9.0850   -3.0410 C   0  0  0  0  0  0  0  0  0  0  0  0
    0.9440    9.0290   -4.3600 C   0  0  0  0  0  0  0  0  0  0  0  0
    0.8470    9.7830   -2.1660 O   0  0  0  0  0  0  0  0  0  0  0  0
    2.5230   10.1240   -4.5710 Br  0  0  0  0  0  0  0  0  0  0  0  0
    0.3240    2.7500   -0.0010 H   0  0  0  0  0  0  0  0  0  0  0  0
    1.0200    0.4610   -1.3900 H   0  0  0  0  0  0  0  0  0  0  0  0
    1.7850    1.0840    0.0610 H   0  0  0  0  0  0  0  0  0  0  0  0
   -1.1150    2.1630    3.2700 H   0  0  0  0  0  0  0  0  0  0  0  0
    0.3980    2.5910    2.4650 H   0  0  0  0  0  0  0  0  0  0  0  0
   -1.0930    3.4480    2.0490 H   0  0  0  0  0  0  0  0  0  0  0  0
   -2.9710    0.9810    2.0490 H   0  0  0  0  0  0  0  0  0  0  0  0
   -2.9930    2.2450    0.8280 H   0  0  0  0  0  0  0  0  0  0  0  0
   -2.8240    0.5550    0.3460 H   0  0  0  0  0  0  0  0  0  0  0  0
   -1.6550    3.8390   -0.5950 H   0  0  0  0  0  0  0  0  0  0  0  0
   -0.4650   -1.3900    2.7000 H   0  0  0  0  0  0  0  0  0  0  0  0
   -0.9350   -2.2750    0.2500 H   0  0  0  0  0  0  0  0  0  0  0  0
   -1.4240   -0.9160   -0.7600 H   0  0  0  0  0  0  0  0  0  0  0  0
   -0.0150   -1.8730   -1.2050 H   0  0  0  0  0  0  0  0  0  0  0  0
    1.2410   -2.2000    1.5800 H   0  0  0  0  0  0  0  0  0  0  0  0
    2.1720   -1.7130    0.1540 H   0  0  0  0  0  0  0  0  0  0  0  0
    2.2270   -0.7350    1.6280 H   0  0  0  0  0  0  0  0  0  0  0  0
   -2.0830    3.7190   -3.3380 H   0  0  0  0  0  0  0  0  0  0  0  0
   -3.4450    2.9310   -2.5130 H   0  0  0  0  0  0  0  0  0  0  0  0
   -3.9330    5.3120   -2.8900 H   0  0  0  0  0  0  0  0  0  0  0  0
   -3.8170    4.9730   -1.1480 H   0  0  0  0  0  0  0  0  0  0  0  0
   -3.3290    7.7150   -2.4460 H   0  0  0  0  0  0  0  0  0  0  0  0
   -3.1830    7.3630   -0.7080 H   0  0  0  0  0  0  0  0  0  0  0  0
   -1.7940    9.3010   -1.2980 H   0  0  0  0  0  0  0  0  0  0  0  0
   -0.7710    7.9450   -0.7790 H   0  0  0  0  0  0  0  0  0  0  0  0
   -1.0800    7.8300   -3.5420 H   0  0  0  0  0  0  0  0  0  0  0  0
    1.2230    7.9970   -4.5860 H   0  0  0  0  0  0  0  0  0  0  0  0
    0.2100    9.3580   -5.0980 H   0  0  0  0  0  0  0  0  0  0  0  0
    0.4490    0.4340    2.2520 H   0  0  0  0  0  0  0  0  0  0  0  0
  1 24  1  0  0  0  0
  1  2  1  0  0  0  0
  1  3  1  0  0  0  0
  1  4  1  0  0  0  0
  2  5  1  0  0  0  0
  2  6  1  0  0  0  0
  2  7  1  0  0  0  0
  3 26  1  0  0  0  0
  3  8  1  0  0  0  0
  3 25  1  0  0  0  0
  4  9  1  0  0  0  0
  4 10  2  0  0  0  0
  5 52  1  0  0  0  0
  5 11  1  0  0  0  0
  5  8  1  0  0  0  0
  6 28  1  0  0  0  0
  6 27  1  0  0  0  0
  6 29  1  0  0  0  0
  7 30  1  0  0  0  0
  7 31  1  0  0  0  0
  7 32  1  0  0  0  0
  8 13  1  0  0  0  0
  8 12  1  0  0  0  0
  9 33  1  0  0  0  0
  9 14  1  0  0  0  0
 11 34  1  0  0  0  0
 12 35  1  0  0  0  0
 12 36  1  0  0  0  0
 12 37  1  0  0  0  0
 13 38  1  0  0  0  0
 13 40  1  0  0  0  0
 13 39  1  0  0  0  0
 14 15  1  0  0  0  0
 14 41  1  0  0  0  0
 14 42  1  0  0  0  0
 15 16  1  0  0  0  0
 15 44  1  0  0  0  0
 15 43  1  0  0  0  0
 16 17  1  0  0  0  0
 17 18  1  0  0  0  0
 17 46  1  0  0  0  0
 17 45  1  0  0  0  0
 18 47  1  0  0  0  0
 18 48  1  0  0  0  0
 18 19  1  0  0  0  0
 19 20  1  0  0  0  0
 19 49  1  0  0  0  0
 20 22  2  0  0  0  0
 20 21  1  0  0  0  0
 21 23  1  0  0  0  0
 21 50  1  0  0  0  0
 21 51  1  0  0  0  0
M  END
