decoy-193
 OpenBabel06062114503D

 35 36  0  0  0  0  0  0  0  0999 V2000
    0.1780    1.4070    0.1980 C   0  0  0  0  0  0  0  0  0  0  0  0
    0.4140    0.0600    0.2890 O   0  0  0  0  0  0  0  0  0  0  0  0
    1.2760    2.2820    0.0570 C   0  0  0  0  0  0  0  0  0  0  0  0
   -1.1320    1.9350    0.1710 C   0  0  0  0  0  0  0  0  0  0  0  0
    0.2650   -0.5000    1.5370 C   0  0  0  0  0  0  0  0  0  0  0  0
    1.0690    3.6680   -0.0600 C   0  0  0  0  0  0  0  0  0  0  0  0
    3.2020    1.5630    0.0100 I   0  0  0  0  0  0  0  0  0  0  0  0
   -1.3320    3.3240    0.0540 C   0  0  0  0  0  0  0  0  0  0  0  0
   -2.7880    0.7220    0.2650 I   0  0  0  0  0  0  0  0  0  0  0  0
   -0.4890   -1.6880    1.6280 C   0  0  0  0  0  0  0  0  0  0  0  0
    0.8850    0.0040    2.7060 C   0  0  0  0  0  0  0  0  0  0  0  0
   -0.2360    4.2090   -0.0610 C   0  0  0  0  0  0  0  0  0  0  0  0
   -0.6600   -2.3390    2.8640 C   0  0  0  0  0  0  0  0  0  0  0  0
    0.7160   -0.6450    3.9430 C   0  0  0  0  0  0  0  0  0  0  0  0
   -0.4430    5.6790   -0.1860 C   0  0  0  0  0  0  0  0  0  0  0  0
   -0.0600   -1.8160    4.0260 C   0  0  0  0  0  0  0  0  0  0  0  0
   -0.0840    6.2340   -1.5950 C   0  0  0  0  0  0  0  0  0  0  0  0
   -0.2130   -2.4310    5.2260 O   0  0  0  0  0  0  0  0  0  0  0  0
   -0.2190    7.7040   -1.6490 C   0  0  0  0  0  0  0  0  0  0  0  0
   -0.9420    5.6440   -2.6330 C   0  0  0  0  0  0  0  0  0  0  0  0
    0.8520    8.4860   -1.9130 O   0  0  0  0  0  0  0  0  0  0  0  0
   -1.4160    8.3000   -1.4480 O   0  0  0  0  0  0  0  0  0  0  0  0
    1.8810    4.2840   -0.1450 H   0  0  0  0  0  0  0  0  0  0  0  0
   -2.2880    3.6840    0.0390 H   0  0  0  0  0  0  0  0  0  0  0  0
   -0.9240   -2.0820    0.7900 H   0  0  0  0  0  0  0  0  0  0  0  0
    1.4610    0.8460    2.6620 H   0  0  0  0  0  0  0  0  0  0  0  0
   -1.2190   -3.1940    2.9140 H   0  0  0  0  0  0  0  0  0  0  0  0
    1.1630   -0.2660    4.7800 H   0  0  0  0  0  0  0  0  0  0  0  0
   -1.4830    5.9360    0.0360 H   0  0  0  0  0  0  0  0  0  0  0  0
    0.1730    6.1760    0.5690 H   0  0  0  0  0  0  0  0  0  0  0  0
    0.9500    5.9720   -1.8330 H   0  0  0  0  0  0  0  0  0  0  0  0
   -0.7790   -3.2130    5.0550 H   0  0  0  0  0  0  0  0  0  0  0  0
   -0.6830    6.0210   -3.5480 H   0  0  0  0  0  0  0  0  0  0  0  0
   -0.8220    4.6290   -2.6420 H   0  0  0  0  0  0  0  0  0  0  0  0
   -1.9210    5.8670   -2.4400 H   0  0  0  0  0  0  0  0  0  0  0  0
  1  2  1  0  0  0  0
  1  3  2  0  0  0  0
  1  4  1  0  0  0  0
  2  5  1  0  0  0  0
  3  6  1  0  0  0  0
  3  7  1  0  0  0  0
  4  9  1  0  0  0  0
  4  8  2  0  0  0  0
  5 10  2  0  0  0  0
  5 11  1  0  0  0  0
  6 12  2  0  0  0  0
  6 23  1  0  0  0  0
  8 12  1  0  0  0  0
  8 24  1  0  0  0  0
 10 13  1  0  0  0  0
 10 25  1  0  0  0  0
 11 14  2  0  0  0  0
 11 26  1  0  0  0  0
 12 15  1  0  0  0  0
 13 27  1  0  0  0  0
 13 16  2  0  0  0  0
 14 16  1  0  0  0  0
 14 28  1  0  0  0  0
 15 29  1  0  0  0  0
 15 30  1  0  0  0  0
 15 17  1  0  0  0  0
 16 18  1  0  0  0  0
 17 31  1  0  0  0  0
 17 19  1  0  0  0  0
 17 20  1  0  0  0  0
 18 32  1  0  0  0  0
 19 22  1  0  0  0  0
 19 21  2  0  0  0  0
 20 35  1  0  0  0  0
 20 33  1  0  0  0  0
 20 34  1  0  0  0  0
M  END
