decoy-791
 OpenBabel06062114513D

 30 31  0  0  0  0  0  0  0  0999 V2000
    0.1830    0.7660    1.4640 C   0  0  0  0  0  0  0  0  0  0  0  0
    1.4840    1.2440    1.7920 C   0  0  0  0  0  0  0  0  0  0  0  0
   -0.8590    0.7110    2.4230 C   0  0  0  0  0  0  0  0  0  0  0  0
   -0.0950    0.3290    0.1480 C   0  0  0  0  0  0  0  0  0  0  0  0
    2.0920    2.2700    1.0280 C   0  0  0  0  0  0  0  0  0  0  0  0
    2.2050    0.6960    2.8810 C   0  0  0  0  0  0  0  0  0  0  0  0
   -2.1340    0.2270    2.0670 C   0  0  0  0  0  0  0  0  0  0  0  0
   -0.6840    1.1340    3.6480 F   0  0  0  0  0  0  0  0  0  0  0  0
   -1.3680   -0.1530   -0.2000 C   0  0  0  0  0  0  0  0  0  0  0  0
    3.3800    2.7390    1.3490 C   0  0  0  0  0  0  0  0  0  0  0  0
    3.4930    1.1640    3.2010 C   0  0  0  0  0  0  0  0  0  0  0  0
   -2.4140   -0.2140    0.7520 C   0  0  0  0  0  0  0  0  0  0  0  0
    4.0800    2.1870    2.4360 C   0  0  0  0  0  0  0  0  0  0  0  0
   -3.7760   -0.7270    0.3940 C   0  0  0  0  0  0  0  0  0  0  0  0
   -4.4550    0.1690   -0.5720 C   0  0  0  0  0  0  0  0  0  0  0  0
   -3.7500   -2.1950   -0.1110 C   0  0  0  0  0  0  0  0  0  0  0  0
   -5.5770    0.8360   -0.2200 O   0  0  0  0  0  0  0  0  0  0  0  0
   -4.0090    0.3130   -1.8410 O   0  0  0  0  0  0  0  0  0  0  0  0
    0.6360    0.3450   -0.5690 H   0  0  0  0  0  0  0  0  0  0  0  0
    1.5970    2.6920    0.2390 H   0  0  0  0  0  0  0  0  0  0  0  0
    1.8030   -0.0600    3.4430 H   0  0  0  0  0  0  0  0  0  0  0  0
   -2.8670    0.2060    2.7810 H   0  0  0  0  0  0  0  0  0  0  0  0
   -1.5240   -0.4660   -1.1610 H   0  0  0  0  0  0  0  0  0  0  0  0
    3.8060    3.4830    0.7920 H   0  0  0  0  0  0  0  0  0  0  0  0
    4.0040    0.7590    3.9890 H   0  0  0  0  0  0  0  0  0  0  0  0
    5.0160    2.5270    2.6680 H   0  0  0  0  0  0  0  0  0  0  0  0
   -4.3980   -0.7420    1.2960 H   0  0  0  0  0  0  0  0  0  0  0  0
   -3.2050   -2.2840   -1.0530 H   0  0  0  0  0  0  0  0  0  0  0  0
   -4.7690   -2.5570   -0.2690 H   0  0  0  0  0  0  0  0  0  0  0  0
   -3.2710   -2.8380    0.6300 H   0  0  0  0  0  0  0  0  0  0  0  0
  1  2  1  0  0  0  0
  1  3  2  0  0  0  0
  1  4  1  0  0  0  0
  2  6  2  0  0  0  0
  2  5  1  0  0  0  0
  3  8  1  0  0  0  0
  3  7  1  0  0  0  0
  4  9  2  0  0  0  0
  4 19  1  0  0  0  0
  5 10  2  0  0  0  0
  5 20  1  0  0  0  0
  6 11  1  0  0  0  0
  6 21  1  0  0  0  0
  7 22  1  0  0  0  0
  7 12  2  0  0  0  0
  9 12  1  0  0  0  0
  9 23  1  0  0  0  0
 10 13  1  0  0  0  0
 10 24  1  0  0  0  0
 11 25  1  0  0  0  0
 11 13  2  0  0  0  0
 12 14  1  0  0  0  0
 13 26  1  0  0  0  0
 14 27  1  0  0  0  0
 14 15  1  0  0  0  0
 14 16  1  0  0  0  0
 15 17  1  0  0  0  0
 15 18  2  0  0  0  0
 16 30  1  0  0  0  0
 16 28  1  0  0  0  0
 16 29  1  0  0  0  0
M  END
