decoy-67
 OpenBabel06062114503D

 67 70  0  0  0  0  0  0  0  0999 V2000
   -1.4800    0.4760   -0.2890 C   0  0  0  0  0  0  0  0  0  0  0  0
   -0.1940    1.4130   -0.2140 C   0  0  0  0  0  0  0  0  0  0  0  0
   -1.6030    0.1250   -1.8330 C   0  0  0  0  0  0  0  0  0  0  0  0
   -2.7100    1.0270    0.3360 C   0  0  0  0  0  0  0  0  0  0  0  0
   -1.1740   -0.7220    0.4820 O   0  0  0  0  0  0  0  0  0  0  0  0
    0.7220    0.6990   -1.2610 C   0  0  0  0  0  0  0  0  0  0  0  0
    0.5930    1.4250    1.1500 C   0  0  0  0  0  0  0  0  0  0  0  0
   -0.5420    2.9060   -0.5980 C   0  0  0  0  0  0  0  0  0  0  0  0
   -0.2170    0.4710   -2.4650 C   0  0  0  0  0  0  0  0  0  0  0  0
   -2.7720    0.7080   -2.6800 C   0  0  0  0  0  0  0  0  0  0  0  0
   -3.3660    0.4450    1.5040 C   0  0  0  0  0  0  0  0  0  0  0  0
   -3.2350    2.0300   -0.1320 O   0  0  0  0  0  0  0  0  0  0  0  0
   -0.8000   -2.0290    0.4030 C   0  0  0  0  0  0  0  0  0  0  0  0
    2.1290    1.3640   -1.4580 C   0  0  0  0  0  0  0  0  0  0  0  0
    2.0480    2.0010    1.0770 C   0  0  0  0  0  0  0  0  0  0  0  0
   -4.5280    1.1710    1.9330 O   0  0  0  0  0  0  0  0  0  0  0  0
   -0.6660   -2.7760    1.6590 C   0  0  0  0  0  0  0  0  0  0  0  0
   -0.4890   -2.6410   -0.7630 O   0  0  0  0  0  0  0  0  0  0  0  0
    2.9300    1.3970   -0.0900 C   0  0  0  0  0  0  0  0  0  0  0  0
    2.9550    0.6440   -2.5680 C   0  0  0  0  0  0  0  0  0  0  0  0
    2.0100    3.4250    1.0860 O   0  0  0  0  0  0  0  0  0  0  0  0
   -5.3240    0.8570    2.9890 C   0  0  0  0  0  0  0  0  0  0  0  0
    4.3990    2.0040   -0.2760 C   0  0  0  0  0  0  0  0  0  0  0  0
    3.1190    0.0720    0.2910 F   0  0  0  0  0  0  0  0  0  0  0  0
    4.3840    1.2270   -2.7130 C   0  0  0  0  0  0  0  0  0  0  0  0
   -6.4780    1.7140    3.2850 C   0  0  0  0  0  0  0  0  0  0  0  0
   -5.0700   -0.2260    3.7620 O   0  0  0  0  0  0  0  0  0  0  0  0
    5.0640    1.2610   -1.4040 C   0  0  0  0  0  0  0  0  0  0  0  0
    5.1550    1.8750    0.9960 C   0  0  0  0  0  0  0  0  0  0  0  0
    4.4520    3.5380   -0.6200 C   0  0  0  0  0  0  0  0  0  0  0  0
    5.0290    0.5140   -3.7040 F   0  0  0  0  0  0  0  0  0  0  0  0
    6.2240    0.5930   -1.1980 C   0  0  0  0  0  0  0  0  0  0  0  0
    6.3010    1.1830    1.0980 C   0  0  0  0  0  0  0  0  0  0  0  0
    6.8350    0.5580    0.0190 C   0  0  0  0  0  0  0  0  0  0  0  0
    7.8860   -0.0570    0.1480 O   0  0  0  0  0  0  0  0  0  0  0  0
    0.9520   -0.3090   -0.8980 H   0  0  0  0  0  0  0  0  0  0  0  0
    1.9760    2.3830   -1.8100 H   0  0  0  0  0  0  0  0  0  0  0  0
   -1.7540   -0.9490   -1.9280 H   0  0  0  0  0  0  0  0  0  0  0  0
    0.0210    1.9770    1.9000 H   0  0  0  0  0  0  0  0  0  0  0  0
    0.6890    0.4070    1.5330 H   0  0  0  0  0  0  0  0  0  0  0  0
   -1.1820    2.9650   -1.4740 H   0  0  0  0  0  0  0  0  0  0  0  0
    0.3270    3.5080   -0.8290 H   0  0  0  0  0  0  0  0  0  0  0  0
   -1.0610    3.4000    0.2250 H   0  0  0  0  0  0  0  0  0  0  0  0
    0.1400   -0.3470   -3.0970 H   0  0  0  0  0  0  0  0  0  0  0  0
   -0.2580    1.3780   -3.0740 H   0  0  0  0  0  0  0  0  0  0  0  0
   -3.7320    0.3940   -2.2650 H   0  0  0  0  0  0  0  0  0  0  0  0
   -2.7130    0.3340   -3.7050 H   0  0  0  0  0  0  0  0  0  0  0  0
   -2.7460    1.7960   -2.7170 H   0  0  0  0  0  0  0  0  0  0  0  0
   -3.6700   -0.5770    1.2640 H   0  0  0  0  0  0  0  0  0  0  0  0
   -2.6530    0.4200    2.3310 H   0  0  0  0  0  0  0  0  0  0  0  0
    2.5160    1.7450    2.0320 H   0  0  0  0  0  0  0  0  0  0  0  0
    0.0730   -2.2890    2.2960 H   0  0  0  0  0  0  0  0  0  0  0  0
   -0.3470   -3.8020    1.4710 H   0  0  0  0  0  0  0  0  0  0  0  0
   -1.6260   -2.7950    2.1750 H   0  0  0  0  0  0  0  0  0  0  0  0
    3.0260   -0.4250   -2.3440 H   0  0  0  0  0  0  0  0  0  0  0  0
    2.4400    0.7470   -3.5280 H   0  0  0  0  0  0  0  0  0  0  0  0
    1.9220    3.6930    0.1510 H   0  0  0  0  0  0  0  0  0  0  0  0
    4.3100    2.2460   -3.0980 H   0  0  0  0  0  0  0  0  0  0  0  0
   -6.1350    2.7290    3.4930 H   0  0  0  0  0  0  0  0  0  0  0  0
   -7.0260    1.3420    4.1520 H   0  0  0  0  0  0  0  0  0  0  0  0
   -7.1490    1.7320    2.4250 H   0  0  0  0  0  0  0  0  0  0  0  0
    4.8200    2.3370    1.8110 H   0  0  0  0  0  0  0  0  0  0  0  0
    3.7630    3.8030   -1.4190 H   0  0  0  0  0  0  0  0  0  0  0  0
    5.4580    3.8250   -0.9410 H   0  0  0  0  0  0  0  0  0  0  0  0
    4.2070    4.1670    0.2380 H   0  0  0  0  0  0  0  0  0  0  0  0
    6.6530    0.0950   -1.9450 H   0  0  0  0  0  0  0  0  0  0  0  0
    6.7660    1.1420    1.9780 H   0  0  0  0  0  0  0  0  0  0  0  0
  1  3  1  0  0  0  0
  1  2  1  0  0  0  0
  1  4  1  0  0  0  0
  1  5  1  0  0  0  0
  2  6  1  0  0  0  0
  2  7  1  0  0  0  0
  2  8  1  0  0  0  0
  3 38  1  0  0  0  0
  3  9  1  0  0  0  0
  3 10  1  0  0  0  0
  4 11  1  0  0  0  0
  4 12  2  0  0  0  0
  5 13  1  0  0  0  0
  6 14  1  0  0  0  0
  6 36  1  0  0  0  0
  6  9  1  0  0  0  0
  7 40  1  0  0  0  0
  7 39  1  0  0  0  0
  7 15  1  0  0  0  0
  8 43  1  0  0  0  0
  8 41  1  0  0  0  0
  8 42  1  0  0  0  0
  9 44  1  0  0  0  0
  9 45  1  0  0  0  0
 10 46  1  0  0  0  0
 10 47  1  0  0  0  0
 10 48  1  0  0  0  0
 11 16  1  0  0  0  0
 11 50  1  0  0  0  0
 11 49  1  0  0  0  0
 13 17  1  0  0  0  0
 13 18  2  0  0  0  0
 14 19  1  0  0  0  0
 14 20  1  0  0  0  0
 14 37  1  0  0  0  0
 15 19  1  0  0  0  0
 15 21  1  0  0  0  0
 15 51  1  0  0  0  0
 16 22  1  0  0  0  0
 17 54  1  0  0  0  0
 17 52  1  0  0  0  0
 17 53  1  0  0  0  0
 19 23  1  0  0  0  0
 19 24  1  0  0  0  0
 20 55  1  0  0  0  0
 20 25  1  0  0  0  0
 20 56  1  0  0  0  0
 21 57  1  0  0  0  0
 22 26  1  0  0  0  0
 22 27  2  0  0  0  0
 23 30  1  0  0  0  0
 23 29  1  0  0  0  0
 23 28  1  0  0  0  0
 25 58  1  0  0  0  0
 25 28  1  0  0  0  0
 25 31  1  0  0  0  0
 26 59  1  0  0  0  0
 26 60  1  0  0  0  0
 26 61  1  0  0  0  0
 28 32  2  0  0  0  0
 29 33  2  0  0  0  0
 29 62  1  0  0  0  0
 30 65  1  0  0  0  0
 30 63  1  0  0  0  0
 30 64  1  0  0  0  0
 32 34  1  0  0  0  0
 32 66  1  0  0  0  0
 33 67  1  0  0  0  0
 33 34  1  0  0  0  0
 34 35  2  0  0  0  0
M  END
