decoy-240
 OpenBabel06062114513D

 42 43  0  0  0  0  0  0  0  0999 V2000
    3.6020   -0.1770   -0.5100 C   0  0  0  0  0  0  0  0  0  0  0  0
    3.0540    0.9920   -0.1320 N   0  0  0  0  0  0  0  0  0  0  0  0
    4.9090   -0.1990   -0.0300 C   0  0  0  0  0  0  0  0  0  0  0  0
    3.1060   -1.2210   -1.2230 N   0  0  0  0  0  0  0  0  0  0  0  0
    4.0090    1.6610    0.5530 C   0  0  0  0  0  0  0  0  0  0  0  0
    1.7230    1.4500   -0.4130 C   0  0  0  0  0  0  0  0  0  0  0  0
    5.1470    0.9440    0.6260 N   0  0  0  0  0  0  0  0  0  0  0  0
    5.7080   -1.3220   -0.2900 C   0  0  0  0  0  0  0  0  0  0  0  0
    3.8900   -2.3060   -1.4710 C   0  0  0  0  0  0  0  0  0  0  0  0
    0.6460    0.6210    0.3420 C   0  0  0  0  0  0  0  0  0  0  0  0
    5.1710   -2.3470   -1.0070 N   0  0  0  0  0  0  0  0  0  0  0  0
    3.3990   -3.3370   -2.1740 N   0  0  0  0  0  0  0  0  0  0  0  0
   -0.8120    1.1810    0.2580 C   0  0  0  0  0  0  0  0  0  0  0  0
   -1.7360    0.4140    1.2530 C   0  0  0  0  0  0  0  0  0  0  0  0
   -1.3790    1.1390   -1.1940 C   0  0  0  0  0  0  0  0  0  0  0  0
   -3.0210    1.0380    1.3610 O   0  0  0  0  0  0  0  0  0  0  0  0
   -2.6840    1.7240   -1.2670 O   0  0  0  0  0  0  0  0  0  0  0  0
   -4.0570    0.6190    2.1340 C   0  0  0  0  0  0  0  0  0  0  0  0
   -3.4540    1.8400   -2.3800 C   0  0  0  0  0  0  0  0  0  0  0  0
   -5.3080    1.3860    2.1160 C   0  0  0  0  0  0  0  0  0  0  0  0
   -3.9510   -0.4850    2.9110 O   0  0  0  0  0  0  0  0  0  0  0  0
   -4.7750    2.4680   -2.2640 C   0  0  0  0  0  0  0  0  0  0  0  0
   -3.0230    1.3860   -3.5810 O   0  0  0  0  0  0  0  0  0  0  0  0
    3.8970    2.5880    0.9690 H   0  0  0  0  0  0  0  0  0  0  0  0
    1.6210    2.5000   -0.1240 H   0  0  0  0  0  0  0  0  0  0  0  0
    1.5630    1.3880   -1.4910 H   0  0  0  0  0  0  0  0  0  0  0  0
    6.6710   -1.3730    0.0460 H   0  0  0  0  0  0  0  0  0  0  0  0
    0.6560   -0.4060   -0.0330 H   0  0  0  0  0  0  0  0  0  0  0  0
    0.9480    0.5880    1.3930 H   0  0  0  0  0  0  0  0  0  0  0  0
    3.9560   -4.1120   -2.3520 H   0  0  0  0  0  0  0  0  0  0  0  0
    2.4880   -3.3100   -2.5060 H   0  0  0  0  0  0  0  0  0  0  0  0
   -0.7870    2.2270    0.5780 H   0  0  0  0  0  0  0  0  0  0  0  0
   -1.8590   -0.6210    0.9230 H   0  0  0  0  0  0  0  0  0  0  0  0
   -1.2840    0.4070    2.2490 H   0  0  0  0  0  0  0  0  0  0  0  0
   -0.7280    1.7020   -1.8650 H   0  0  0  0  0  0  0  0  0  0  0  0
   -1.4260    0.1030   -1.5430 H   0  0  0  0  0  0  0  0  0  0  0  0
   -5.1130    2.4100    2.4400 H   0  0  0  0  0  0  0  0  0  0  0  0
   -6.0460    0.9400    2.7840 H   0  0  0  0  0  0  0  0  0  0  0  0
   -5.7120    1.4020    1.1040 H   0  0  0  0  0  0  0  0  0  0  0  0
   -5.3900    1.8960   -1.5680 H   0  0  0  0  0  0  0  0  0  0  0  0
   -5.2760    2.4990   -3.2330 H   0  0  0  0  0  0  0  0  0  0  0  0
   -4.6640    3.4860   -1.8910 H   0  0  0  0  0  0  0  0  0  0  0  0
  1  2  1  0  0  0  0
  1  3  2  0  0  0  0
  1  4  1  0  0  0  0
  2  5  1  0  0  0  0
  2  6  1  0  0  0  0
  3  7  1  0  0  0  0
  3  8  1  0  0  0  0
  4  9  2  0  0  0  0
  5  7  2  0  0  0  0
  5 24  1  0  0  0  0
  6 25  1  0  0  0  0
  6 10  1  0  0  0  0
  6 26  1  0  0  0  0
  8 27  1  0  0  0  0
  8 11  2  0  0  0  0
  9 11  1  0  0  0  0
  9 12  1  0  0  0  0
 10 29  1  0  0  0  0
 10 13  1  0  0  0  0
 10 28  1  0  0  0  0
 12 30  1  0  0  0  0
 12 31  1  0  0  0  0
 13 32  1  0  0  0  0
 13 14  1  0  0  0  0
 13 15  1  0  0  0  0
 14 16  1  0  0  0  0
 14 34  1  0  0  0  0
 14 33  1  0  0  0  0
 15 17  1  0  0  0  0
 15 35  1  0  0  0  0
 15 36  1  0  0  0  0
 16 18  1  0  0  0  0
 17 19  1  0  0  0  0
 18 21  2  0  0  0  0
 18 20  1  0  0  0  0
 19 22  1  0  0  0  0
 19 23  2  0  0  0  0
 20 37  1  0  0  0  0
 20 38  1  0  0  0  0
 20 39  1  0  0  0  0
 22 42  1  0  0  0  0
 22 40  1  0  0  0  0
 22 41  1  0  0  0  0
M  END
