decoy-885
 OpenBabel06062114513D

 25 24  0  0  0  0  0  0  0  0999 V2000
   -4.3500    0.1320    0.4630 *   0  0  0  0  0  0  0  0  0  0  0  0
   -5.4840   -0.1470   -0.5120 C   0  0  0  0  0  0  0  0  0  0  0  0
   -3.0390   -0.0760   -0.2620 C   0  0  0  0  0  0  0  0  0  0  0  0
   -4.3950    1.5560    0.9610 C   0  0  0  0  0  0  0  0  0  0  0  0
   -4.3950   -0.8110    1.6400 C   0  0  0  0  0  0  0  0  0  0  0  0
   -6.9490   -0.0060   -0.0170 C   0  0  0  0  0  0  0  0  0  0  0  0
   -7.8480   -0.3130   -1.0900 O   0  0  0  0  0  0  0  0  0  0  0  0
   -9.2030   -0.2950   -1.0250 C   0  0  0  0  0  0  0  0  0  0  0  0
   -9.9100   -0.6090   -2.1200 N   0  0  0  0  0  0  0  0  0  0  0  0
   -9.8630    0.0310    0.1100 O   0  0  0  0  0  0  0  0  0  0  0  0
   -5.3850    0.5160   -1.3780 H   0  0  0  0  0  0  0  0  0  0  0  0
   -5.3850   -1.1690   -0.8950 H   0  0  0  0  0  0  0  0  0  0  0  0
   -2.9450   -1.1000   -0.6340 H   0  0  0  0  0  0  0  0  0  0  0  0
   -2.1810    0.1120    0.3910 H   0  0  0  0  0  0  0  0  0  0  0  0
   -2.9450    0.5960   -1.1200 H   0  0  0  0  0  0  0  0  0  0  0  0
   -4.4030    2.2670    0.1310 H   0  0  0  0  0  0  0  0  0  0  0  0
   -3.5290    1.7880    1.5870 H   0  0  0  0  0  0  0  0  0  0  0  0
   -5.2840    1.7440    1.5680 H   0  0  0  0  0  0  0  0  0  0  0  0
   -5.2840   -0.6490    2.2540 H   0  0  0  0  0  0  0  0  0  0  0  0
   -3.5290   -0.6760    2.2940 H   0  0  0  0  0  0  0  0  0  0  0  0
   -4.4030   -1.8540    1.3130 H   0  0  0  0  0  0  0  0  0  0  0  0
   -7.1410   -0.6950    0.8070 H   0  0  0  0  0  0  0  0  0  0  0  0
   -7.1410    1.0150    0.3170 H   0  0  0  0  0  0  0  0  0  0  0  0
  -10.8800   -0.6000   -2.0910 H   0  0  0  0  0  0  0  0  0  0  0  0
   -9.4530   -0.8450   -2.9420 H   0  0  0  0  0  0  0  0  0  0  0  0
  1  4  1  0  0  0  0
  1  5  1  0  0  0  0
  1  2  1  0  0  0  0
  1  3  1  0  0  0  0
  2  6  1  0  0  0  0
  2 11  1  0  0  0  0
  2 12  1  0  0  0  0
  3 14  1  0  0  0  0
  3 13  1  0  0  0  0
  3 15  1  0  0  0  0
  4 18  1  0  0  0  0
  4 17  1  0  0  0  0
  4 16  1  0  0  0  0
  5 19  1  0  0  0  0
  5 20  1  0  0  0  0
  5 21  1  0  0  0  0
  6 23  1  0  0  0  0
  6 22  1  0  0  0  0
  6  7  1  0  0  0  0
  7  8  1  0  0  0  0
  8 10  2  0  0  0  0
  8  9  1  0  0  0  0
  9 24  1  0  0  0  0
  9 25  1  0  0  0  0
M  END
