decoy-798
 OpenBabel06062114513D

 88 93  0  0  0  0  0  0  0  0999 V2000
    0.2100    1.4970    2.3820 P   0  0  0  0  0  0  0  0  0  0  0  0
    0.7800    0.4490    1.2970 C   0  0  0  0  0  0  0  0  0  0  0  0
    1.1960    2.7640    2.1860 C   0  0  0  0  0  0  0  0  0  0  0  0
   -1.3540    1.7970    1.8530 C   0  0  0  0  0  0  0  0  0  0  0  0
    1.1840   -0.8260    1.7620 C   0  0  0  0  0  0  0  0  0  0  0  0
    0.9020    0.7330   -0.0880 C   0  0  0  0  0  0  0  0  0  0  0  0
    2.4830    2.6750    2.7740 C   0  0  0  0  0  0  0  0  0  0  0  0
    0.8660    3.9570    1.4910 C   0  0  0  0  0  0  0  0  0  0  0  0
   -2.1560    2.6980    2.8380 C   0  0  0  0  0  0  0  0  0  0  0  0
    1.6920   -1.7890    0.8690 C   0  0  0  0  0  0  0  0  0  0  0  0
    1.4100   -0.2310   -0.9780 C   0  0  0  0  0  0  0  0  0  0  0  0
    3.4080    3.7300    2.6640 C   0  0  0  0  0  0  0  0  0  0  0  0
    1.7910    5.0120    1.3820 C   0  0  0  0  0  0  0  0  0  0  0  0
   -3.6500    3.2090    2.2550 P   0  0  0  0  0  0  0  0  0  0  0  0
    1.8040   -1.4920   -0.5000 C   0  0  0  0  0  0  0  0  0  0  0  0
    3.0620    4.8990    1.9680 C   0  0  0  0  0  0  0  0  0  0  0  0
   -4.5730    1.8020    2.3090 C   0  0  0  0  0  0  0  0  0  0  0  0
   -4.2390    4.1660    3.5140 C   0  0  0  0  0  0  0  0  0  0  0  0
   -6.0640    1.9940    1.9170 C   0  0  0  0  0  0  0  0  0  0  0  0
   -5.1670    5.3130    3.0110 C   0  0  0  0  0  0  0  0  0  0  0  0
   -6.9280    0.5570    1.9170 P   0  0  0  0  0  0  0  0  0  0  0  0
   -6.1020    6.1650    4.1180 P   0  0  0  0  0  0  0  0  0  0  0  0
   -6.4340   -0.2140    0.5890 C   0  0  0  0  0  0  0  0  0  0  0  0
   -8.4950    0.8180    1.6150 C   0  0  0  0  0  0  0  0  0  0  0  0
   -5.1020    6.9830    5.0850 C   0  0  0  0  0  0  0  0  0  0  0  0
   -7.0610    5.1100    4.8810 C   0  0  0  0  0  0  0  0  0  0  0  0
   -5.8020   -1.4690    0.7540 C   0  0  0  0  0  0  0  0  0  0  0  0
   -6.5940    0.2950   -0.7260 C   0  0  0  0  0  0  0  0  0  0  0  0
   -9.3810   -0.2730    1.8000 C   0  0  0  0  0  0  0  0  0  0  0  0
   -9.0470    2.0610    1.2080 C   0  0  0  0  0  0  0  0  0  0  0  0
   -5.1650    8.3970    5.0210 C   0  0  0  0  0  0  0  0  0  0  0  0
   -4.1650    6.3970    5.9740 C   0  0  0  0  0  0  0  0  0  0  0  0
   -7.0440    4.8620    6.2790 C   0  0  0  0  0  0  0  0  0  0  0  0
   -8.0570    4.4530    4.1130 C   0  0  0  0  0  0  0  0  0  0  0  0
   -5.3370   -2.1930   -0.3600 C   0  0  0  0  0  0  0  0  0  0  0  0
   -6.1290   -0.4310   -1.8380 C   0  0  0  0  0  0  0  0  0  0  0  0
  -10.7630   -0.1320    1.5800 C   0  0  0  0  0  0  0  0  0  0  0  0
  -10.4300    2.2020    0.9880 C   0  0  0  0  0  0  0  0  0  0  0  0
   -4.3190    9.1960    5.8120 C   0  0  0  0  0  0  0  0  0  0  0  0
   -3.3200    7.1960    6.7660 C   0  0  0  0  0  0  0  0  0  0  0  0
   -7.9270    3.9370    6.8660 C   0  0  0  0  0  0  0  0  0  0  0  0
   -8.9410    3.5270    4.6980 C   0  0  0  0  0  0  0  0  0  0  0  0
   -5.4990   -1.6740   -1.6560 C   0  0  0  0  0  0  0  0  0  0  0  0
  -11.2880    1.1060    1.1730 C   0  0  0  0  0  0  0  0  0  0  0  0
   -3.3940    8.5960    6.6830 C   0  0  0  0  0  0  0  0  0  0  0  0
   -8.8690    3.2600    6.0740 C   0  0  0  0  0  0  0  0  0  0  0  0
   -1.3600    2.2260    0.8500 H   0  0  0  0  0  0  0  0  0  0  0  0
   -1.8520    0.8270    1.7950 H   0  0  0  0  0  0  0  0  0  0  0  0
    1.1150   -1.0740    2.7540 H   0  0  0  0  0  0  0  0  0  0  0  0
    0.6290    1.6450   -0.4630 H   0  0  0  0  0  0  0  0  0  0  0  0
    2.7710    1.8390    3.2920 H   0  0  0  0  0  0  0  0  0  0  0  0
   -0.0440    4.0840    1.0480 H   0  0  0  0  0  0  0  0  0  0  0  0
   -2.2770    2.1800    3.7940 H   0  0  0  0  0  0  0  0  0  0  0  0
   -1.5670    3.5990    3.0270 H   0  0  0  0  0  0  0  0  0  0  0  0
    1.9800   -2.7060    1.2170 H   0  0  0  0  0  0  0  0  0  0  0  0
    1.4940   -0.0130   -1.9730 H   0  0  0  0  0  0  0  0  0  0  0  0
    4.3330    3.6470    3.0930 H   0  0  0  0  0  0  0  0  0  0  0  0
    1.5380    5.8630    0.8750 H   0  0  0  0  0  0  0  0  0  0  0  0
    2.1740   -2.1920   -1.1470 H   0  0  0  0  0  0  0  0  0  0  0  0
    3.7330    5.6670    1.8880 H   0  0  0  0  0  0  0  0  0  0  0  0
   -4.1360    1.1050    1.5940 H   0  0  0  0  0  0  0  0  0  0  0  0
   -4.5150    1.3450    3.3020 H   0  0  0  0  0  0  0  0  0  0  0  0
   -4.7490    3.5560    4.2630 H   0  0  0  0  0  0  0  0  0  0  0  0
   -3.3930    4.6460    4.0060 H   0  0  0  0  0  0  0  0  0  0  0  0
   -6.5320    2.6290    2.6660 H   0  0  0  0  0  0  0  0  0  0  0  0
   -6.1250    2.4980    0.9500 H   0  0  0  0  0  0  0  0  0  0  0  0
   -4.5470    6.0470    2.4880 H   0  0  0  0  0  0  0  0  0  0  0  0
   -5.8600    4.9230    2.2650 H   0  0  0  0  0  0  0  0  0  0  0  0
   -5.6660   -1.8750    1.6860 H   0  0  0  0  0  0  0  0  0  0  0  0
   -7.0520    1.1940   -0.8900 H   0  0  0  0  0  0  0  0  0  0  0  0
   -9.0340   -1.1900    2.1000 H   0  0  0  0  0  0  0  0  0  0  0  0
   -8.4600    2.8820    1.0580 H   0  0  0  0  0  0  0  0  0  0  0  0
   -5.8250    8.8700    4.3950 H   0  0  0  0  0  0  0  0  0  0  0  0
   -4.1040    5.3830    6.0800 H   0  0  0  0  0  0  0  0  0  0  0  0
   -6.4080    5.3570    6.9010 H   0  0  0  0  0  0  0  0  0  0  0  0
   -8.1580    4.6370    3.1110 H   0  0  0  0  0  0  0  0  0  0  0  0
   -4.8800   -3.0980   -0.2270 H   0  0  0  0  0  0  0  0  0  0  0  0
   -6.2500   -0.0540   -2.7810 H   0  0  0  0  0  0  0  0  0  0  0  0
  -11.3880   -0.9300    1.7180 H   0  0  0  0  0  0  0  0  0  0  0  0
  -10.8110    3.1030    0.6920 H   0  0  0  0  0  0  0  0  0  0  0  0
   -4.3750   10.2150    5.7530 H   0  0  0  0  0  0  0  0  0  0  0  0
   -2.6540    6.7570    7.4060 H   0  0  0  0  0  0  0  0  0  0  0  0
   -7.8920    3.7640    7.8730 H   0  0  0  0  0  0  0  0  0  0  0  0
   -9.6420    3.0530    4.1230 H   0  0  0  0  0  0  0  0  0  0  0  0
   -5.1610   -2.2000   -2.4640 H   0  0  0  0  0  0  0  0  0  0  0  0
  -12.2930    1.2090    1.0130 H   0  0  0  0  0  0  0  0  0  0  0  0
   -2.7800    9.1770    7.2590 H   0  0  0  0  0  0  0  0  0  0  0  0
   -9.5130    2.5910    6.5010 H   0  0  0  0  0  0  0  0  0  0  0  0
  1  2  1  0  0  0  0
  1  3  1  0  0  0  0
  1  4  1  0  0  0  0
  2  5  2  0  0  0  0
  2  6  1  0  0  0  0
  3  7  2  0  0  0  0
  3  8  1  0  0  0  0
  4  9  1  0  0  0  0
  4 47  1  0  0  0  0
  4 48  1  0  0  0  0
  5 49  1  0  0  0  0
  5 10  1  0  0  0  0
  6 11  2  0  0  0  0
  6 50  1  0  0  0  0
  7 51  1  0  0  0  0
  7 12  1  0  0  0  0
  8 13  2  0  0  0  0
  8 52  1  0  0  0  0
  9 54  1  0  0  0  0
  9 53  1  0  0  0  0
  9 14  1  0  0  0  0
 10 55  1  0  0  0  0
 10 15  2  0  0  0  0
 11 15  1  0  0  0  0
 11 56  1  0  0  0  0
 12 57  1  0  0  0  0
 12 16  2  0  0  0  0
 13 16  1  0  0  0  0
 13 58  1  0  0  0  0
 14 17  1  0  0  0  0
 14 18  1  0  0  0  0
 15 59  1  0  0  0  0
 16 60  1  0  0  0  0
 17 62  1  0  0  0  0
 17 19  1  0  0  0  0
 17 61  1  0  0  0  0
 18 64  1  0  0  0  0
 18 63  1  0  0  0  0
 18 20  1  0  0  0  0
 19 21  1  0  0  0  0
 19 65  1  0  0  0  0
 19 66  1  0  0  0  0
 20 22  1  0  0  0  0
 20 67  1  0  0  0  0
 20 68  1  0  0  0  0
 21 23  1  0  0  0  0
 21 24  1  0  0  0  0
 22 26  1  0  0  0  0
 22 25  1  0  0  0  0
 23 27  2  0  0  0  0
 23 28  1  0  0  0  0
 24 29  2  0  0  0  0
 24 30  1  0  0  0  0
 25 32  2  0  0  0  0
 25 31  1  0  0  0  0
 26 33  2  0  0  0  0
 26 34  1  0  0  0  0
 27 69  1  0  0  0  0
 27 35  1  0  0  0  0
 28 36  2  0  0  0  0
 28 70  1  0  0  0  0
 29 71  1  0  0  0  0
 29 37  1  0  0  0  0
 30 38  2  0  0  0  0
 30 72  1  0  0  0  0
 31 39  2  0  0  0  0
 31 73  1  0  0  0  0
 32 74  1  0  0  0  0
 32 40  1  0  0  0  0
 33 41  1  0  0  0  0
 33 75  1  0  0  0  0
 34 42  2  0  0  0  0
 34 76  1  0  0  0  0
 35 77  1  0  0  0  0
 35 43  2  0  0  0  0
 36 43  1  0  0  0  0
 36 78  1  0  0  0  0
 37 79  1  0  0  0  0
 37 44  2  0  0  0  0
 38 44  1  0  0  0  0
 38 80  1  0  0  0  0
 39 45  1  0  0  0  0
 39 81  1  0  0  0  0
 40 82  1  0  0  0  0
 40 45  2  0  0  0  0
 41 83  1  0  0  0  0
 41 46  2  0  0  0  0
 42 46  1  0  0  0  0
 42 84  1  0  0  0  0
 43 85  1  0  0  0  0
 44 86  1  0  0  0  0
 45 87  1  0  0  0  0
 46 88  1  0  0  0  0
M  END
