decoy-657
 OpenBabel06062114513D

 72 78  0  0  0  0  0  0  0  0999 V2000
   -0.0350    1.4070    0.0070 C   0  0  0  0  0  0  0  0  0  0  0  0
   -0.0160   -0.0160    0.0000 C   0  0  0  0  0  0  0  0  0  0  0  0
    1.1880    2.1360    0.0000 C   0  0  0  0  0  0  0  0  0  0  0  0
   -1.2810    2.1040    0.0220 C   0  0  0  0  0  0  0  0  0  0  0  0
    1.2260   -0.7110   -0.0150 C   0  0  0  0  0  0  0  0  0  0  0  0
   -1.2430   -0.7470    0.0070 C   0  0  0  0  0  0  0  0  0  0  0  0
    2.4300    1.4410   -0.0150 C   0  0  0  0  0  0  0  0  0  0  0  0
    1.1690    3.5630    0.0070 C   0  0  0  0  0  0  0  0  0  0  0  0
   -1.7610    2.6870    1.2170 C   0  0  0  0  0  0  0  0  0  0  0  0
   -2.0500    2.2210   -1.1590 C   0  0  0  0  0  0  0  0  0  0  0  0
    2.4500    0.0170   -0.0230 C   0  0  0  0  0  0  0  0  0  0  0  0
    1.2460   -2.1390   -0.0230 C   0  0  0  0  0  0  0  0  0  0  0  0
   -1.7280   -1.3420   -1.1800 C   0  0  0  0  0  0  0  0  0  0  0  0
   -1.9870   -0.8830    1.2010 C   0  0  0  0  0  0  0  0  0  0  0  0
    3.6570    2.1710   -0.0220 C   0  0  0  0  0  0  0  0  0  0  0  0
    1.4440    4.2760    1.1960 C   0  0  0  0  0  0  0  0  0  0  0  0
    0.8750    4.2810   -1.1750 C   0  0  0  0  0  0  0  0  0  0  0  0
   -2.9880    3.3750    1.2300 C   0  0  0  0  0  0  0  0  0  0  0  0
   -3.2780    2.9070   -1.1430 C   0  0  0  0  0  0  0  0  0  0  0  0
    3.6960   -0.6800   -0.0380 C   0  0  0  0  0  0  0  0  0  0  0  0
    1.5190   -2.8440   -1.2170 C   0  0  0  0  0  0  0  0  0  0  0  0
    0.9910   -2.8640    1.1640 C   0  0  0  0  0  0  0  0  0  0  0  0
   -2.9370   -2.0620   -1.1710 C   0  0  0  0  0  0  0  0  0  0  0  0
   -3.1960   -1.6030    1.2070 C   0  0  0  0  0  0  0  0  0  0  0  0
    4.4220    2.2960    1.1600 C   0  0  0  0  0  0  0  0  0  0  0  0
    4.1210    2.7790   -1.2120 C   0  0  0  0  0  0  0  0  0  0  0  0
    1.4250    5.6830    1.2030 C   0  0  0  0  0  0  0  0  0  0  0  0
    0.8560    5.6880   -1.1660 C   0  0  0  0  0  0  0  0  0  0  0  0
   -3.7470    3.4850    0.0510 C   0  0  0  0  0  0  0  0  0  0  0  0
    4.4430   -0.7840   -1.2330 C   0  0  0  0  0  0  0  0  0  0  0  0
    4.1970   -1.2750    1.1430 C   0  0  0  0  0  0  0  0  0  0  0  0
    1.5380   -4.2510   -1.2230 C   0  0  0  0  0  0  0  0  0  0  0  0
    1.0110   -4.2710    1.1550 C   0  0  0  0  0  0  0  0  0  0  0  0
   -3.6710   -2.1920    0.0220 C   0  0  0  0  0  0  0  0  0  0  0  0
    5.6310    3.0160    1.1510 C   0  0  0  0  0  0  0  0  0  0  0  0
    5.3300    3.4990   -1.2170 C   0  0  0  0  0  0  0  0  0  0  0  0
    1.1310    6.3890    0.0220 C   0  0  0  0  0  0  0  0  0  0  0  0
    5.6710   -1.4710   -1.2470 C   0  0  0  0  0  0  0  0  0  0  0  0
    5.4240   -1.9620    1.1270 C   0  0  0  0  0  0  0  0  0  0  0  0
    1.2840   -4.9650   -0.0380 C   0  0  0  0  0  0  0  0  0  0  0  0
    6.0850    3.6180   -0.0370 C   0  0  0  0  0  0  0  0  0  0  0  0
    6.1620   -2.0600   -0.0670 C   0  0  0  0  0  0  0  0  0  0  0  0
   -1.2220    2.6110    2.0840 H   0  0  0  0  0  0  0  0  0  0  0  0
   -1.7190    1.8100   -2.0360 H   0  0  0  0  0  0  0  0  0  0  0  0
   -1.2060   -1.2520   -2.0560 H   0  0  0  0  0  0  0  0  0  0  0  0
   -1.6520   -0.4630    2.0720 H   0  0  0  0  0  0  0  0  0  0  0  0
    1.6560    3.7760    2.0640 H   0  0  0  0  0  0  0  0  0  0  0  0
    0.6760    3.7840   -2.0470 H   0  0  0  0  0  0  0  0  0  0  0  0
   -3.3300    3.7940    2.0980 H   0  0  0  0  0  0  0  0  0  0  0  0
   -3.8300    2.9880   -2.0000 H   0  0  0  0  0  0  0  0  0  0  0  0
    1.7020   -2.3390   -2.0880 H   0  0  0  0  0  0  0  0  0  0  0  0
    0.7950   -2.3730    2.0400 H   0  0  0  0  0  0  0  0  0  0  0  0
   -3.2830   -2.4910   -2.0330 H   0  0  0  0  0  0  0  0  0  0  0  0
   -3.7300   -1.6980    2.0740 H   0  0  0  0  0  0  0  0  0  0  0  0
    4.1030    1.8670    2.0320 H   0  0  0  0  0  0  0  0  0  0  0  0
    3.5840    2.6970   -2.0790 H   0  0  0  0  0  0  0  0  0  0  0  0
    1.6240    6.1930    2.0660 H   0  0  0  0  0  0  0  0  0  0  0  0
    0.6430    6.2010   -2.0240 H   0  0  0  0  0  0  0  0  0  0  0  0
   -4.6390    3.9840    0.0610 H   0  0  0  0  0  0  0  0  0  0  0  0
    4.0970   -0.3630   -2.0990 H   0  0  0  0  0  0  0  0  0  0  0  0
    3.6730   -1.2080    2.0200 H   0  0  0  0  0  0  0  0  0  0  0  0
    1.7360   -4.7560   -2.0900 H   0  0  0  0  0  0  0  0  0  0  0  0
    0.8270   -4.7900    2.0170 H   0  0  0  0  0  0  0  0  0  0  0  0
   -4.5490   -2.7150    0.0270 H   0  0  0  0  0  0  0  0  0  0  0  0
    6.1800    3.1030    2.0090 H   0  0  0  0  0  0  0  0  0  0  0  0
    5.6600    3.9360   -2.0810 H   0  0  0  0  0  0  0  0  0  0  0  0
    1.1170    7.4110    0.0270 H   0  0  0  0  0  0  0  0  0  0  0  0
    6.2070   -1.5420   -2.1150 H   0  0  0  0  0  0  0  0  0  0  0  0
    5.7820   -2.3900    1.9840 H   0  0  0  0  0  0  0  0  0  0  0  0
    1.2980   -5.9870   -0.0430 H   0  0  0  0  0  0  0  0  0  0  0  0
    6.9630    4.1410   -0.0420 H   0  0  0  0  0  0  0  0  0  0  0  0
    7.0540   -2.5590   -0.0780 H   0  0  0  0  0  0  0  0  0  0  0  0
  1  4  1  0  0  0  0
  1  2  2  0  0  0  0
  1  3  1  0  0  0  0
  2  6  1  0  0  0  0
  2  5  1  0  0  0  0
  3  8  1  0  0  0  0
  3  7  2  0  0  0  0
  4  9  2  0  0  0  0
  4 10  1  0  0  0  0
  5 11  2  0  0  0  0
  5 12  1  0  0  0  0
  6 14  2  0  0  0  0
  6 13  1  0  0  0  0
  7 11  1  0  0  0  0
  7 15  1  0  0  0  0
  8 16  2  0  0  0  0
  8 17  1  0  0  0  0
  9 18  1  0  0  0  0
  9 43  1  0  0  0  0
 10 19  2  0  0  0  0
 10 44  1  0  0  0  0
 11 20  1  0  0  0  0
 12 22  2  0  0  0  0
 12 21  1  0  0  0  0
 13 23  2  0  0  0  0
 13 45  1  0  0  0  0
 14 24  1  0  0  0  0
 14 46  1  0  0  0  0
 15 25  2  0  0  0  0
 15 26  1  0  0  0  0
 16 27  1  0  0  0  0
 16 47  1  0  0  0  0
 17 28  2  0  0  0  0
 17 48  1  0  0  0  0
 18 49  1  0  0  0  0
 18 29  2  0  0  0  0
 19 29  1  0  0  0  0
 19 50  1  0  0  0  0
 20 31  2  0  0  0  0
 20 30  1  0  0  0  0
 21 32  2  0  0  0  0
 21 51  1  0  0  0  0
 22 52  1  0  0  0  0
 22 33  1  0  0  0  0
 23 34  1  0  0  0  0
 23 53  1  0  0  0  0
 24 54  1  0  0  0  0
 24 34  2  0  0  0  0
 25 55  1  0  0  0  0
 25 35  1  0  0  0  0
 26 36  2  0  0  0  0
 26 56  1  0  0  0  0
 27 57  1  0  0  0  0
 27 37  2  0  0  0  0
 28 37  1  0  0  0  0
 28 58  1  0  0  0  0
 29 59  1  0  0  0  0
 30 38  2  0  0  0  0
 30 60  1  0  0  0  0
 31 61  1  0  0  0  0
 31 39  1  0  0  0  0
 32 40  1  0  0  0  0
 32 62  1  0  0  0  0
 33 63  1  0  0  0  0
 33 40  2  0  0  0  0
 34 64  1  0  0  0  0
 35 65  1  0  0  0  0
 35 41  2  0  0  0  0
 36 41  1  0  0  0  0
 36 66  1  0  0  0  0
 37 67  1  0  0  0  0
 38 42  1  0  0  0  0
 38 68  1  0  0  0  0
 39 69  1  0  0  0  0
 39 42  2  0  0  0  0
 40 70  1  0  0  0  0
 41 71  1  0  0  0  0
 42 72  1  0  0  0  0
M  END
