
  ACD/Labs06062115553D

 72 75  0  0  0  0  0  0  0  0  1 V2000
   18.3028  -11.0774   -1.6367 C   0  0  0  0  0  0  0  0  0  0  0  0
   16.9369  -11.5755   -2.2136 C   0  0  0  0  0  0  0  0  0  0  0  0
   19.4777  -12.1057   -1.7697 C   0  0  0  0  0  0  0  0  0  0  0  0
   18.8965   -9.7579   -2.1607 C   0  0  0  0  0  0  0  0  0  0  0  0
   16.4751  -12.8809   -1.4638 C   0  0  0  0  0  0  0  0  0  0  0  0
   15.8317  -10.4787   -2.1473 C   0  0  0  0  0  0  0  0  0  0  0  0
   20.6562  -11.2574   -1.1441 C   0  0  0  0  0  0  0  0  0  0  0  0
   19.0166  -13.3701   -0.9625 C   0  0  0  0  0  0  0  0  0  0  0  0
   19.8247  -12.5143   -3.2528 C   0  0  0  0  0  0  0  0  0  0  0  0
   20.3698   -9.8178   -1.6955 C   0  0  0  0  0  0  0  0  0  0  0  0
   15.0600  -13.3720   -2.0088 C   0  0  0  0  0  0  0  0  0  0  0  0
   17.6382  -13.9376   -1.4253 C   0  0  0  0  0  0  0  0  0  0  0  0
   14.4602  -10.9505   -2.1498 C   0  0  0  0  0  0  0  0  0  0  0  0
   22.1674  -11.6993   -1.3109 C   0  0  0  0  0  0  0  0  0  0  0  0
   14.0852  -12.2347   -1.9601 C   0  0  0  0  0  0  0  0  0  0  0  0
   14.4996  -14.5945   -1.1580 C   0  0  0  0  0  0  0  0  0  0  0  0
   15.1284  -13.8449   -3.5061 C   0  0  0  0  0  0  0  0  0  0  0  0
   23.1558  -10.7090   -0.5917 C   0  0  0  0  0  0  0  0  0  0  0  0
   22.4193  -13.1523   -0.8039 C   0  0  0  0  0  0  0  0  0  0  0  0
   12.7005  -12.5077   -1.5335 C   0  0  0  0  0  0  0  0  0  0  0  0
   13.7053  -14.1595    0.1059 C   0  0  0  0  0  0  0  0  0  0  0  0
   24.6428  -10.7903   -1.0503 C   0  0  0  0  0  0  0  0  0  0  0  0
   12.7345  -13.1205   -0.2110 C   0  0  0  0  0  0  0  0  0  0  0  0
   25.5370   -9.7040   -0.3886 C   0  0  0  0  0  0  0  0  0  0  0  0
   12.0454  -12.6671    0.6927 O   0  0  0  0  0  0  0  0  0  0  0  0
   27.0107   -9.6561   -0.9065 C   0  0  0  0  0  0  0  0  0  0  0  0
   27.7425   -8.3993   -0.3582 C   0  0  0  0  0  0  0  0  0  0  0  0
   27.8206  -10.9383   -0.5620 C   0  0  0  0  0  0  0  0  0  0  0  0
   18.1133  -10.9003   -0.5674 H   0  0  0  0  0  0  0  0  0  0  0  0
   17.0898  -11.7985   -3.2685 H   0  0  0  0  0  0  0  0  0  0  0  0
   16.3150  -12.5972   -0.4167 H   0  0  0  0  0  0  0  0  0  0  0  0
   18.8284   -9.7099   -3.2508 H   0  0  0  0  0  0  0  0  0  0  0  0
   18.3798   -8.8903   -1.7405 H   0  0  0  0  0  0  0  0  0  0  0  0
   15.9531   -9.8945   -1.2314 H   0  0  0  0  0  0  0  0  0  0  0  0
   15.9621   -9.7958   -2.9918 H   0  0  0  0  0  0  0  0  0  0  0  0
   20.4839  -11.2195   -0.0613 H   0  0  0  0  0  0  0  0  0  0  0  0
   19.7476  -14.1723   -1.0498 H   0  0  0  0  0  0  0  0  0  0  0  0
   18.9452  -13.1218    0.1014 H   0  0  0  0  0  0  0  0  0  0  0  0
   20.1691  -11.6620   -3.8385 H   0  0  0  0  0  0  0  0  0  0  0  0
   20.6135  -13.2643   -3.2727 H   0  0  0  0  0  0  0  0  0  0  0  0
   18.9732  -12.9429   -3.7763 H   0  0  0  0  0  0  0  0  0  0  0  0
   21.0208   -9.5797   -2.5408 H   0  0  0  0  0  0  0  0  0  0  0  0
   20.5378   -9.0715   -0.9134 H   0  0  0  0  0  0  0  0  0  0  0  0
   17.3943  -14.7383   -0.7275 H   0  0  0  0  0  0  0  0  0  0  0  0
   17.7585  -14.3955   -2.4060 H   0  0  0  0  0  0  0  0  0  0  0  0
   13.7653  -10.2369   -2.1357 H   0  0  0  0  0  0  0  0  0  0  0  0
   22.4055  -11.6790   -2.3784 H   0  0  0  0  0  0  0  0  0  0  0  0
   13.8006  -15.1824   -1.7613 H   0  0  0  0  0  0  0  0  0  0  0  0
   15.2779  -15.2948   -0.8638 H   0  0  0  0  0  0  0  0  0  0  0  0
   15.4698  -13.0565   -4.1758 H   0  0  0  0  0  0  0  0  0  0  0  0
   15.7949  -14.7011   -3.6169 H   0  0  0  0  0  0  0  0  0  0  0  0
   14.1427  -14.1527   -3.8636 H   0  0  0  0  0  0  0  0  0  0  0  0
   22.8401   -9.6824   -0.7746 H   0  0  0  0  0  0  0  0  0  0  0  0
   23.1051  -10.8694    0.4895 H   0  0  0  0  0  0  0  0  0  0  0  0
   21.9540  -13.8803   -1.4638 H   0  0  0  0  0  0  0  0  0  0  0  0
   23.4795  -13.3996   -0.7867 H   0  0  0  0  0  0  0  0  0  0  0  0
   22.0230  -13.2819    0.2051 H   0  0  0  0  0  0  0  0  0  0  0  0
   12.0627  -11.6171   -1.5190 H   0  0  0  0  0  0  0  0  0  0  0  0
   12.2439  -13.2072   -2.2376 H   0  0  0  0  0  0  0  0  0  0  0  0
   13.1877  -15.0266    0.5255 H   0  0  0  0  0  0  0  0  0  0  0  0
   14.4027  -13.7795    0.8567 H   0  0  0  0  0  0  0  0  0  0  0  0
   25.0460  -11.7700   -0.7988 H   0  0  0  0  0  0  0  0  0  0  0  0
   24.6851  -10.6711   -2.1361 H   0  0  0  0  0  0  0  0  0  0  0  0
   25.0763   -8.7305   -0.5809 H   0  0  0  0  0  0  0  0  0  0  0  0
   25.5411   -9.8580    0.6942 H   0  0  0  0  0  0  0  0  0  0  0  0
   26.9858   -9.5626   -1.9975 H   0  0  0  0  0  0  0  0  0  0  0  0
   28.7569   -8.3405   -0.7609 H   0  0  0  0  0  0  0  0  0  0  0  0
   27.2134   -7.4909   -0.6514 H   0  0  0  0  0  0  0  0  0  0  0  0
   27.8020   -8.4325    0.7318 H   0  0  0  0  0  0  0  0  0  0  0  0
   27.3977  -11.8090   -1.0639 H   0  0  0  0  0  0  0  0  0  0  0  0
   28.8551  -10.8382   -0.8967 H   0  0  0  0  0  0  0  0  0  0  0  0
   27.8187  -11.1179    0.5149 H   0  0  0  0  0  0  0  0  0  0  0  0
  1  3  1  0  0  0  0
  1 29  1  0  0  0  0
  1  2  1  0  0  0  0
  1  4  1  0  0  0  0
  2  6  1  0  0  0  0
  2  5  1  0  0  0  0
  2 30  1  0  0  0  0
  3  7  1  0  0  0  0
  3  8  1  0  0  0  0
  3  9  1  0  0  0  0
  4 10  1  0  0  0  0
  4 33  1  0  0  0  0
  4 32  1  0  0  0  0
  5 12  1  0  0  0  0
  5 31  1  0  0  0  0
  5 11  1  0  0  0  0
  6 13  1  0  0  0  0
  6 34  1  0  0  0  0
  6 35  1  0  0  0  0
  7 36  1  0  0  0  0
  7 10  1  0  0  0  0
  7 14  1  0  0  0  0
  8 12  1  0  0  0  0
  8 38  1  0  0  0  0
  8 37  1  0  0  0  0
  9 39  1  0  0  0  0
  9 40  1  0  0  0  0
  9 41  1  0  0  0  0
 10 43  1  0  0  0  0
 10 42  1  0  0  0  0
 11 16  1  0  0  0  0
 11 15  1  0  0  0  0
 11 17  1  0  0  0  0
 12 44  1  0  0  0  0
 12 45  1  0  0  0  0
 13 15  2  0  0  0  0
 13 46  1  0  0  0  0
 14 47  1  0  0  0  0
 14 18  1  0  0  0  0
 14 19  1  0  0  0  0
 15 20  1  0  0  0  0
 16 49  1  0  0  0  0
 16 21  1  0  0  0  0
 16 48  1  0  0  0  0
 17 50  1  0  0  0  0
 17 51  1  0  0  0  0
 17 52  1  0  0  0  0
 18 54  1  0  0  0  0
 18 22  1  0  0  0  0
 18 53  1  0  0  0  0
 19 57  1  0  0  0  0
 19 55  1  0  0  0  0
 19 56  1  0  0  0  0
 20 23  1  0  0  0  0
 20 58  1  0  0  0  0
 20 59  1  0  0  0  0
 21 61  1  0  0  0  0
 21 60  1  0  0  0  0
 21 23  1  0  0  0  0
 22 24  1  0  0  0  0
 22 62  1  0  0  0  0
 22 63  1  0  0  0  0
 23 25  2  0  0  0  0
 24 65  1  0  0  0  0
 24 26  1  0  0  0  0
 24 64  1  0  0  0  0
 26 28  1  0  0  0  0
 26 27  1  0  0  0  0
 26 66  1  0  0  0  0
 27 69  1  0  0  0  0
 27 67  1  0  0  0  0
 27 68  1  0  0  0  0
 28 72  1  0  0  0  0
 28 70  1  0  0  0  0
 28 71  1  0  0  0  0
M  END
