decoy-306
 OpenBabel06062114513D

 40 42  0  0  0  0  0  0  0  0999 V2000
   -0.5820    1.0670    0.5900 C   0  0  0  0  0  0  0  0  0  0  0  0
   -0.4010   -0.1910   -0.0440 C   0  0  0  0  0  0  0  0  0  0  0  0
    0.5220    1.8120    0.8450 N   0  0  0  0  0  0  0  0  0  0  0  0
   -1.8880    1.4880    0.9370 C   0  0  0  0  0  0  0  0  0  0  0  0
    0.8610   -0.5540   -0.3820 N   0  0  0  0  0  0  0  0  0  0  0  0
   -1.5290   -1.0050   -0.3060 C   0  0  0  0  0  0  0  0  0  0  0  0
    0.7450    2.9940    1.3840 C   0  0  0  0  0  0  0  0  0  0  0  0
   -2.9990    0.6710    0.6680 C   0  0  0  0  0  0  0  0  0  0  0  0
    1.4070   -1.6120   -0.9480 C   0  0  0  0  0  0  0  0  0  0  0  0
   -2.8200   -0.5760    0.0480 C   0  0  0  0  0  0  0  0  0  0  0  0
    2.0400    3.4560    1.5630 C   0  0  0  0  0  0  0  0  0  0  0  0
    2.7660   -1.6450   -1.2200 C   0  0  0  0  0  0  0  0  0  0  0  0
    3.0710    3.2480    0.6060 C   0  0  0  0  0  0  0  0  0  0  0  0
    2.3530    4.1530    2.7560 C   0  0  0  0  0  0  0  0  0  0  0  0
    3.7420   -1.1120   -0.3340 C   0  0  0  0  0  0  0  0  0  0  0  0
    3.2000   -2.2210   -2.4390 C   0  0  0  0  0  0  0  0  0  0  0  0
    4.3790    3.7080    0.8610 C   0  0  0  0  0  0  0  0  0  0  0  0
    2.8600    2.6210   -0.5820 O   0  0  0  0  0  0  0  0  0  0  0  0
    3.6590    4.6150    3.0000 C   0  0  0  0  0  0  0  0  0  0  0  0
    5.1070   -1.1410   -0.6830 C   0  0  0  0  0  0  0  0  0  0  0  0
    3.4260   -0.5710    0.8730 O   0  0  0  0  0  0  0  0  0  0  0  0
    4.5650   -2.2520   -2.7770 C   0  0  0  0  0  0  0  0  0  0  0  0
    4.6730    4.3900    2.0540 C   0  0  0  0  0  0  0  0  0  0  0  0
    5.5190   -1.7090   -1.9010 C   0  0  0  0  0  0  0  0  0  0  0  0
   -2.0440    2.3890    1.3930 H   0  0  0  0  0  0  0  0  0  0  0  0
   -1.4250   -1.9140   -0.7600 H   0  0  0  0  0  0  0  0  0  0  0  0
   -0.0150    3.5320    1.7290 H   0  0  0  0  0  0  0  0  0  0  0  0
   -3.9390    0.9830    0.9240 H   0  0  0  0  0  0  0  0  0  0  0  0
    0.8320   -2.3650   -1.2460 H   0  0  0  0  0  0  0  0  0  0  0  0
   -3.6290   -1.1700   -0.1470 H   0  0  0  0  0  0  0  0  0  0  0  0
    1.6350    4.3210    3.4660 H   0  0  0  0  0  0  0  0  0  0  0  0
    2.5240   -2.6140   -3.1010 H   0  0  0  0  0  0  0  0  0  0  0  0
    5.1200    3.5540    0.1740 H   0  0  0  0  0  0  0  0  0  0  0  0
    1.9090    2.7430   -0.7830 H   0  0  0  0  0  0  0  0  0  0  0  0
    3.8720    5.1130    3.8670 H   0  0  0  0  0  0  0  0  0  0  0  0
    5.8080   -0.7540   -0.0460 H   0  0  0  0  0  0  0  0  0  0  0  0
    2.5780   -0.9840    1.1370 H   0  0  0  0  0  0  0  0  0  0  0  0
    4.8640   -2.6670   -3.6630 H   0  0  0  0  0  0  0  0  0  0  0  0
    5.6220    4.7240    2.2320 H   0  0  0  0  0  0  0  0  0  0  0  0
    6.5110   -1.7300   -2.1470 H   0  0  0  0  0  0  0  0  0  0  0  0
  1  3  1  0  0  0  0
  1  4  2  0  0  0  0
  1  2  1  0  0  0  0
  2  5  1  0  0  0  0
  2  6  2  0  0  0  0
  3  7  2  0  0  0  0
  4 25  1  0  0  0  0
  4  8  1  0  0  0  0
  5  9  2  0  0  0  0
  6 10  1  0  0  0  0
  6 26  1  0  0  0  0
  7 11  1  0  0  0  0
  7 27  1  0  0  0  0
  8 28  1  0  0  0  0
  8 10  2  0  0  0  0
  9 12  1  0  0  0  0
  9 29  1  0  0  0  0
 10 30  1  0  0  0  0
 11 14  2  0  0  0  0
 11 13  1  0  0  0  0
 12 15  2  0  0  0  0
 12 16  1  0  0  0  0
 13 17  2  0  0  0  0
 13 18  1  0  0  0  0
 14 19  1  0  0  0  0
 14 31  1  0  0  0  0
 15 21  1  0  0  0  0
 15 20  1  0  0  0  0
 16 22  2  0  0  0  0
 16 32  1  0  0  0  0
 17 23  1  0  0  0  0
 17 33  1  0  0  0  0
 18 34  1  0  0  0  0
 19 35  1  0  0  0  0
 19 23  2  0  0  0  0
 20 36  1  0  0  0  0
 20 24  2  0  0  0  0
 21 37  1  0  0  0  0
 22 24  1  0  0  0  0
 22 38  1  0  0  0  0
 23 39  1  0  0  0  0
 24 40  1  0  0  0  0
M  END
