decoy-664
 OpenBabel06062114513D

 80 84  0  0  0  0  0  0  0  0999 V2000
    0.4100   -0.2470    1.0910 C   0  0  0  0  0  0  0  0  0  0  0  0
    0.9080   -1.7170    1.3310 C   0  0  0  0  0  0  0  0  0  0  0  0
    1.6130    0.7390    0.8330 C   0  0  0  0  0  0  0  0  0  0  0  0
   -0.7810   -0.4160    0.0910 C   0  0  0  0  0  0  0  0  0  0  0  0
    1.8520   -1.7120    2.5780 C   0  0  0  0  0  0  0  0  0  0  0  0
   -0.4560   -2.4350    1.5260 C   0  0  0  0  0  0  0  0  0  0  0  0
    1.6190   -2.4110    0.1970 C   0  0  0  0  0  0  0  0  0  0  0  0
    2.6980    0.7670    2.0090 C   0  0  0  0  0  0  0  0  0  0  0  0
    1.1770    2.1750    0.4310 C   0  0  0  0  0  0  0  0  0  0  0  0
   -1.3700   -1.8240    0.4340 C   0  0  0  0  0  0  0  0  0  0  0  0
   -1.8100    0.6510    0.0890 C   0  0  0  0  0  0  0  0  0  0  0  0
    3.0590   -0.7410    2.3630 C   0  0  0  0  0  0  0  0  0  0  0  0
    2.0380   -3.6900    0.3420 O   0  0  0  0  0  0  0  0  0  0  0  0
    1.7950   -1.8750   -1.0310 O   0  0  0  0  0  0  0  0  0  0  0  0
    3.9870    1.6540    1.5260 C   0  0  0  0  0  0  0  0  0  0  0  0
    2.0520    1.3360    3.3500 C   0  0  0  0  0  0  0  0  0  0  0  0
    2.3810    3.0600    0.0180 C   0  0  0  0  0  0  0  0  0  0  0  0
   -2.5710    0.9890    1.2920 C   0  0  0  0  0  0  0  0  0  0  0  0
   -2.1000    1.3250   -1.0400 C   0  0  0  0  0  0  0  0  0  0  0  0
    3.5230    3.1290    1.0930 C   0  0  0  0  0  0  0  0  0  0  0  0
    5.0540    1.8180    2.6790 C   0  0  0  0  0  0  0  0  0  0  0  0
    4.7660    0.9420    0.3430 C   0  0  0  0  0  0  0  0  0  0  0  0
    4.6460    4.2620    0.8530 C   0  0  0  0  0  0  0  0  0  0  0  0
    6.1770    2.8650    2.4370 C   0  0  0  0  0  0  0  0  0  0  0  0
    5.5910    4.2880    2.1410 C   0  0  0  0  0  0  0  0  0  0  0  0
    3.9540    5.6850    0.7820 C   0  0  0  0  0  0  0  0  0  0  0  0
    5.4230    4.0530   -0.5070 C   0  0  0  0  0  0  0  0  0  0  0  0
    6.6160    5.5040    2.2890 C   0  0  0  0  0  0  0  0  0  0  0  0
    4.9010    6.9090    0.8850 C   0  0  0  0  0  0  0  0  0  0  0  0
    5.8080    6.8510    2.1360 C   0  0  0  0  0  0  0  0  0  0  0  0
    7.2560    5.5210    3.7280 C   0  0  0  0  0  0  0  0  0  0  0  0
    7.8140    5.4550    1.2800 C   0  0  0  0  0  0  0  0  0  0  0  0
    6.6480    8.0090    2.1000 O   0  0  0  0  0  0  0  0  0  0  0  0
   -0.0550    0.1020    2.0110 H   0  0  0  0  0  0  0  0  0  0  0  0
    2.0890    0.3450   -0.0580 H   0  0  0  0  0  0  0  0  0  0  0  0
    3.0040    3.5200    1.9640 H   0  0  0  0  0  0  0  0  0  0  0  0
    4.9050    4.4570    2.9810 H   0  0  0  0  0  0  0  0  0  0  0  0
   -0.3350   -0.4880   -0.9060 H   0  0  0  0  0  0  0  0  0  0  0  0
    1.2980   -1.4270    3.4740 H   0  0  0  0  0  0  0  0  0  0  0  0
    2.2320   -2.7190    2.7720 H   0  0  0  0  0  0  0  0  0  0  0  0
   -0.3950   -3.5240    1.4370 H   0  0  0  0  0  0  0  0  0  0  0  0
   -0.8700   -2.2070    2.5140 H   0  0  0  0  0  0  0  0  0  0  0  0
    0.5110    2.1250   -0.4310 H   0  0  0  0  0  0  0  0  0  0  0  0
    0.6230    2.6480    1.2440 H   0  0  0  0  0  0  0  0  0  0  0  0
   -2.4020   -1.7900    0.7940 H   0  0  0  0  0  0  0  0  0  0  0  0
   -1.3540   -2.4600   -0.4560 H   0  0  0  0  0  0  0  0  0  0  0  0
    3.6890   -0.7800    3.2550 H   0  0  0  0  0  0  0  0  0  0  0  0
    3.6380   -1.1930    1.5640 H   0  0  0  0  0  0  0  0  0  0  0  0
    1.7920    2.3870    3.3000 H   0  0  0  0  0  0  0  0  0  0  0  0
    1.1360    0.8330    3.6370 H   0  0  0  0  0  0  0  0  0  0  0  0
    2.7130    1.2030    4.2060 H   0  0  0  0  0  0  0  0  0  0  0  0
    2.7670    2.6840   -0.9300 H   0  0  0  0  0  0  0  0  0  0  0  0
    1.9750    4.0530   -0.1760 H   0  0  0  0  0  0  0  0  0  0  0  0
   -3.6420    0.8890    1.1000 H   0  0  0  0  0  0  0  0  0  0  0  0
   -2.3350    0.3430    2.1380 H   0  0  0  0  0  0  0  0  0  0  0  0
   -2.3620    2.0200    1.5860 H   0  0  0  0  0  0  0  0  0  0  0  0
   -1.6310    1.1330   -1.8930 H   0  0  0  0  0  0  0  0  0  0  0  0
   -2.7920    2.0380   -1.0510 H   0  0  0  0  0  0  0  0  0  0  0  0
    4.5720    2.1420    3.5980 H   0  0  0  0  0  0  0  0  0  0  0  0
    5.5230    0.8550    2.8990 H   0  0  0  0  0  0  0  0  0  0  0  0
    4.1590    0.7910   -0.5430 H   0  0  0  0  0  0  0  0  0  0  0  0
    5.6320    1.4970    0.0180 H   0  0  0  0  0  0  0  0  0  0  0  0
    5.1730   -0.0220    0.6390 H   0  0  0  0  0  0  0  0  0  0  0  0
    6.7730    2.8790    3.3490 H   0  0  0  0  0  0  0  0  0  0  0  0
    6.8470    2.5370    1.6440 H   0  0  0  0  0  0  0  0  0  0  0  0
    3.4060    5.7930   -0.1570 H   0  0  0  0  0  0  0  0  0  0  0  0
    3.2200    5.7820    1.5890 H   0  0  0  0  0  0  0  0  0  0  0  0
    6.3810    3.5590   -0.3620 H   0  0  0  0  0  0  0  0  0  0  0  0
    4.8550    3.4590   -1.2180 H   0  0  0  0  0  0  0  0  0  0  0  0
    5.6430    4.9840   -1.0250 H   0  0  0  0  0  0  0  0  0  0  0  0
    5.5140    7.0010   -0.0130 H   0  0  0  0  0  0  0  0  0  0  0  0
    4.2880    7.8150    0.9370 H   0  0  0  0  0  0  0  0  0  0  0  0
    5.1510    6.9720    3.0050 H   0  0  0  0  0  0  0  0  0  0  0  0
    7.9650    4.7030    3.8650 H   0  0  0  0  0  0  0  0  0  0  0  0
    7.8120    6.4420    3.9100 H   0  0  0  0  0  0  0  0  0  0  0  0
    6.4890    5.4400    4.5020 H   0  0  0  0  0  0  0  0  0  0  0  0
    7.5000    5.6520    0.2590 H   0  0  0  0  0  0  0  0  0  0  0  0
    8.5640    6.2100    1.5260 H   0  0  0  0  0  0  0  0  0  0  0  0
    8.3060    4.4820    1.3060 H   0  0  0  0  0  0  0  0  0  0  0  0
    7.0690    8.0570    2.9820 H   0  0  0  0  0  0  0  0  0  0  0  0
  1  4  1  0  0  0  0
  1 34  1  0  0  0  0
  1  2  1  0  0  0  0
  1  3  1  0  0  0  0
  2  6  1  0  0  0  0
  2  5  1  0  0  0  0
  2  7  1  0  0  0  0
  3  8  1  0  0  0  0
  3  9  1  0  0  0  0
  3 35  1  0  0  0  0
  4 38  1  0  0  0  0
  4 10  1  0  0  0  0
  4 11  1  0  0  0  0
  5 40  1  0  0  0  0
  5 39  1  0  0  0  0
  5 12  1  0  0  0  0
  6 42  1  0  0  0  0
  6 10  1  0  0  0  0
  6 41  1  0  0  0  0
  7 13  1  0  0  0  0
  7 14  2  0  0  0  0
  8 12  1  0  0  0  0
  8 16  1  0  0  0  0
  8 15  1  0  0  0  0
  9 44  1  0  0  0  0
  9 17  1  0  0  0  0
  9 43  1  0  0  0  0
 10 45  1  0  0  0  0
 10 46  1  0  0  0  0
 11 18  1  0  0  0  0
 11 19  2  0  0  0  0
 12 47  1  0  0  0  0
 12 48  1  0  0  0  0
 15 20  1  0  0  0  0
 15 21  1  0  0  0  0
 15 22  1  0  0  0  0
 16 50  1  0  0  0  0
 16 51  1  0  0  0  0
 16 49  1  0  0  0  0
 17 20  1  0  0  0  0
 17 52  1  0  0  0  0
 17 53  1  0  0  0  0
 18 56  1  0  0  0  0
 18 55  1  0  0  0  0
 18 54  1  0  0  0  0
 19 57  1  0  0  0  0
 19 58  1  0  0  0  0
 20 23  1  0  0  0  0
 20 36  1  0  0  0  0
 21 60  1  0  0  0  0
 21 59  1  0  0  0  0
 21 24  1  0  0  0  0
 22 63  1  0  0  0  0
 22 61  1  0  0  0  0
 22 62  1  0  0  0  0
 23 25  1  0  0  0  0
 23 26  1  0  0  0  0
 23 27  1  0  0  0  0
 24 64  1  0  0  0  0
 24 25  1  0  0  0  0
 24 65  1  0  0  0  0
 25 28  1  0  0  0  0
 25 37  1  0  0  0  0
 26 29  1  0  0  0  0
 26 67  1  0  0  0  0
 26 66  1  0  0  0  0
 27 68  1  0  0  0  0
 27 69  1  0  0  0  0
 27 70  1  0  0  0  0
 28 31  1  0  0  0  0
 28 30  1  0  0  0  0
 28 32  1  0  0  0  0
 29 72  1  0  0  0  0
 29 30  1  0  0  0  0
 29 71  1  0  0  0  0
 30 73  1  0  0  0  0
 30 33  1  0  0  0  0
 31 74  1  0  0  0  0
 31 75  1  0  0  0  0
 31 76  1  0  0  0  0
 32 79  1  0  0  0  0
 32 78  1  0  0  0  0
 32 77  1  0  0  0  0
 33 80  1  0  0  0  0
M  END
