decoy-206
 OpenBabel06062114503D

 35 37  0  0  0  0  0  0  0  0999 V2000
    0.0390    1.4480    0.0950 C   0  0  0  0  0  0  0  0  0  0  0  0
    0.1540    0.0620    0.3850 C   0  0  0  0  0  0  0  0  0  0  0  0
    1.2430    2.1490   -0.0550 C   0  0  0  0  0  0  0  0  0  0  0  0
   -1.2570    2.0170   -0.0260 C   0  0  0  0  0  0  0  0  0  0  0  0
    1.3900   -0.5450    0.4880 O   0  0  0  0  0  0  0  0  0  0  0  0
   -0.9960   -0.7260    0.5800 C   0  0  0  0  0  0  0  0  0  0  0  0
    2.4410    1.4910   -0.1290 C   0  0  0  0  0  0  0  0  0  0  0  0
    1.2590    3.3680    0.0620 O   0  0  0  0  0  0  0  0  0  0  0  0
   -2.4000    1.2180    0.1750 C   0  0  0  0  0  0  0  0  0  0  0  0
   -1.4620    3.3200   -0.3470 O   0  0  0  0  0  0  0  0  0  0  0  0
    2.4900    0.1670    0.1410 C   0  0  0  0  0  0  0  0  0  0  0  0
   -2.2750   -0.1490    0.4800 C   0  0  0  0  0  0  0  0  0  0  0  0
    3.5550    2.1440   -0.4780 O   0  0  0  0  0  0  0  0  0  0  0  0
    3.6670   -0.5550    0.0880 C   0  0  0  0  0  0  0  0  0  0  0  0
   -3.3920   -0.8960    0.6650 O   0  0  0  0  0  0  0  0  0  0  0  0
    3.9600   -1.3540   -1.0400 C   0  0  0  0  0  0  0  0  0  0  0  0
    4.5840   -0.5130    1.1610 C   0  0  0  0  0  0  0  0  0  0  0  0
    5.1550   -2.0990   -1.0980 C   0  0  0  0  0  0  0  0  0  0  0  0
    5.7770   -1.2560    1.1040 C   0  0  0  0  0  0  0  0  0  0  0  0
    6.0610   -2.0630   -0.0160 C   0  0  0  0  0  0  0  0  0  0  0  0
    5.4410   -2.8530   -2.1900 O   0  0  0  0  0  0  0  0  0  0  0  0
    7.2390   -2.7580   -0.0720 O   0  0  0  0  0  0  0  0  0  0  0  0
    7.1490   -4.0750    0.4980 C   0  0  0  0  0  0  0  0  0  0  0  0
   -0.9000   -1.7210    0.7930 H   0  0  0  0  0  0  0  0  0  0  0  0
   -3.3310    1.6330    0.0920 H   0  0  0  0  0  0  0  0  0  0  0  0
   -0.7180    3.5700   -0.9320 H   0  0  0  0  0  0  0  0  0  0  0  0
    3.2720    3.0220   -0.8080 H   0  0  0  0  0  0  0  0  0  0  0  0
   -3.0770   -1.8030    0.8620 H   0  0  0  0  0  0  0  0  0  0  0  0
    3.3060   -1.3930   -1.8280 H   0  0  0  0  0  0  0  0  0  0  0  0
    4.3920    0.0600    1.9880 H   0  0  0  0  0  0  0  0  0  0  0  0
    6.4380   -1.2120    1.8830 H   0  0  0  0  0  0  0  0  0  0  0  0
    4.6890   -2.7310   -2.8050 H   0  0  0  0  0  0  0  0  0  0  0  0
    8.1240   -4.5520    0.4060 H   0  0  0  0  0  0  0  0  0  0  0  0
    6.8880   -4.0320    1.5590 H   0  0  0  0  0  0  0  0  0  0  0  0
    6.4170   -4.6890   -0.0320 H   0  0  0  0  0  0  0  0  0  0  0  0
  1  2  2  0  0  0  0
  1  3  1  0  0  0  0
  1  4  1  0  0  0  0
  2  5  1  0  0  0  0
  2  6  1  0  0  0  0
  3  8  2  0  0  0  0
  3  7  1  0  0  0  0
  4  9  2  0  0  0  0
  4 10  1  0  0  0  0
  5 11  1  0  0  0  0
  6 24  1  0  0  0  0
  6 12  2  0  0  0  0
  7 11  2  0  0  0  0
  7 13  1  0  0  0  0
  9 12  1  0  0  0  0
  9 25  1  0  0  0  0
 10 26  1  0  0  0  0
 11 14  1  0  0  0  0
 12 15  1  0  0  0  0
 13 27  1  0  0  0  0
 14 17  2  0  0  0  0
 14 16  1  0  0  0  0
 15 28  1  0  0  0  0
 16 18  2  0  0  0  0
 16 29  1  0  0  0  0
 17 30  1  0  0  0  0
 17 19  1  0  0  0  0
 18 20  1  0  0  0  0
 18 21  1  0  0  0  0
 19 31  1  0  0  0  0
 19 20  2  0  0  0  0
 20 22  1  0  0  0  0
 21 32  1  0  0  0  0
 22 23  1  0  0  0  0
 23 34  1  0  0  0  0
 23 33  1  0  0  0  0
 23 35  1  0  0  0  0
M  END
