decoy-647
 OpenBabel06062114513D

 58 58  0  0  0  0  0  0  0  0999 V2000
    0.1520    1.3780   -0.1310 C   0  0  0  0  0  0  0  0  0  0  0  0
    0.1480   -0.0130    0.1320 C   0  0  0  0  0  0  0  0  0  0  0  0
    1.3820    2.0020   -0.4480 C   0  0  0  0  0  0  0  0  0  0  0  0
   -1.1150    2.1570   -0.0820 C   0  0  0  0  0  0  0  0  0  0  0  0
    1.3410   -0.7620    0.0860 C   0  0  0  0  0  0  0  0  0  0  0  0
    2.5750    1.2580   -0.4940 C   0  0  0  0  0  0  0  0  0  0  0  0
   -1.6630    2.3160    1.3620 C   0  0  0  0  0  0  0  0  0  0  0  0
    2.5550   -0.1220   -0.2270 C   0  0  0  0  0  0  0  0  0  0  0  0
    1.3380   -2.0950    0.3380 O   0  0  0  0  0  0  0  0  0  0  0  0
   -2.9710    3.1500    1.4160 C   0  0  0  0  0  0  0  0  0  0  0  0
   -3.5200    3.3080    2.8580 C   0  0  0  0  0  0  0  0  0  0  0  0
   -4.8280    4.1410    2.9120 C   0  0  0  0  0  0  0  0  0  0  0  0
   -5.3770    4.2990    4.3540 C   0  0  0  0  0  0  0  0  0  0  0  0
   -6.6840    5.1330    4.4080 C   0  0  0  0  0  0  0  0  0  0  0  0
   -7.2330    5.2910    5.8510 C   0  0  0  0  0  0  0  0  0  0  0  0
   -8.5410    6.1240    5.9040 C   0  0  0  0  0  0  0  0  0  0  0  0
   -9.0900    6.2820    7.3470 C   0  0  0  0  0  0  0  0  0  0  0  0
  -10.3980    7.1160    7.4000 C   0  0  0  0  0  0  0  0  0  0  0  0
  -10.9470    7.2740    8.8430 C   0  0  0  0  0  0  0  0  0  0  0  0
  -12.2540    8.1080    8.8960 C   0  0  0  0  0  0  0  0  0  0  0  0
  -12.8020    8.2650   10.3380 C   0  0  0  0  0  0  0  0  0  0  0  0
  -14.1040    9.0940   10.3950 C   0  0  0  0  0  0  0  0  0  0  0  0
   -0.7300   -0.4890    0.3530 H   0  0  0  0  0  0  0  0  0  0  0  0
    1.4200    3.0060   -0.6430 H   0  0  0  0  0  0  0  0  0  0  0  0
   -0.9650    3.1540   -0.5060 H   0  0  0  0  0  0  0  0  0  0  0  0
   -1.8610    1.6540   -0.7050 H   0  0  0  0  0  0  0  0  0  0  0  0
    3.4580    1.7200   -0.7210 H   0  0  0  0  0  0  0  0  0  0  0  0
   -1.8580    1.3280    1.7880 H   0  0  0  0  0  0  0  0  0  0  0  0
   -0.9030    2.8080    1.9770 H   0  0  0  0  0  0  0  0  0  0  0  0
    3.4240   -0.6590   -0.2610 H   0  0  0  0  0  0  0  0  0  0  0  0
    0.4050   -2.3290    0.5300 H   0  0  0  0  0  0  0  0  0  0  0  0
   -2.7790    4.1420    0.9980 H   0  0  0  0  0  0  0  0  0  0  0  0
   -3.7290    2.6600    0.7980 H   0  0  0  0  0  0  0  0  0  0  0  0
   -3.7130    2.3150    3.2760 H   0  0  0  0  0  0  0  0  0  0  0  0
   -2.7610    3.7960    3.4760 H   0  0  0  0  0  0  0  0  0  0  0  0
   -4.6340    5.1330    2.4940 H   0  0  0  0  0  0  0  0  0  0  0  0
   -5.5860    3.6530    2.2940 H   0  0  0  0  0  0  0  0  0  0  0  0
   -5.5700    3.3070    4.7720 H   0  0  0  0  0  0  0  0  0  0  0  0
   -4.6180    4.7870    4.9720 H   0  0  0  0  0  0  0  0  0  0  0  0
   -6.4910    6.1250    3.9900 H   0  0  0  0  0  0  0  0  0  0  0  0
   -7.4430    4.6450    3.7900 H   0  0  0  0  0  0  0  0  0  0  0  0
   -7.4270    4.2990    6.2680 H   0  0  0  0  0  0  0  0  0  0  0  0
   -6.4740    5.7790    6.4680 H   0  0  0  0  0  0  0  0  0  0  0  0
   -8.3480    7.1170    5.4860 H   0  0  0  0  0  0  0  0  0  0  0  0
   -9.3000    5.6360    5.2860 H   0  0  0  0  0  0  0  0  0  0  0  0
   -9.2830    5.2900    7.7640 H   0  0  0  0  0  0  0  0  0  0  0  0
   -8.3310    6.7710    7.9650 H   0  0  0  0  0  0  0  0  0  0  0  0
  -10.2040    8.1080    6.9820 H   0  0  0  0  0  0  0  0  0  0  0  0
  -11.1560    6.6280    6.7820 H   0  0  0  0  0  0  0  0  0  0  0  0
  -11.1400    6.2820    9.2600 H   0  0  0  0  0  0  0  0  0  0  0  0
  -10.1880    7.7620    9.4610 H   0  0  0  0  0  0  0  0  0  0  0  0
  -12.0610    9.1000    8.4790 H   0  0  0  0  0  0  0  0  0  0  0  0
  -13.0130    7.6190    8.2780 H   0  0  0  0  0  0  0  0  0  0  0  0
  -13.0010    7.2760   10.7610 H   0  0  0  0  0  0  0  0  0  0  0  0
  -12.0490    8.7560   10.9610 H   0  0  0  0  0  0  0  0  0  0  0  0
  -14.4460    9.1750   11.4280 H   0  0  0  0  0  0  0  0  0  0  0  0
  -13.9320   10.1000   10.0060 H   0  0  0  0  0  0  0  0  0  0  0  0
  -14.8870    8.6140    9.8050 H   0  0  0  0  0  0  0  0  0  0  0  0
  1  4  1  0  0  0  0
  1  2  2  0  0  0  0
  1  3  1  0  0  0  0
  2 23  1  0  0  0  0
  2  5  1  0  0  0  0
  3  6  2  0  0  0  0
  3 24  1  0  0  0  0
  4  7  1  0  0  0  0
  4 25  1  0  0  0  0
  4 26  1  0  0  0  0
  5  9  1  0  0  0  0
  5  8  2  0  0  0  0
  6  8  1  0  0  0  0
  6 27  1  0  0  0  0
  7 10  1  0  0  0  0
  7 28  1  0  0  0  0
  7 29  1  0  0  0  0
  8 30  1  0  0  0  0
  9 31  1  0  0  0  0
 10 11  1  0  0  0  0
 10 32  1  0  0  0  0
 10 33  1  0  0  0  0
 11 12  1  0  0  0  0
 11 34  1  0  0  0  0
 11 35  1  0  0  0  0
 12 13  1  0  0  0  0
 12 36  1  0  0  0  0
 12 37  1  0  0  0  0
 13 14  1  0  0  0  0
 13 38  1  0  0  0  0
 13 39  1  0  0  0  0
 14 15  1  0  0  0  0
 14 40  1  0  0  0  0
 14 41  1  0  0  0  0
 15 16  1  0  0  0  0
 15 42  1  0  0  0  0
 15 43  1  0  0  0  0
 16 17  1  0  0  0  0
 16 44  1  0  0  0  0
 16 45  1  0  0  0  0
 17 18  1  0  0  0  0
 17 46  1  0  0  0  0
 17 47  1  0  0  0  0
 18 19  1  0  0  0  0
 18 48  1  0  0  0  0
 18 49  1  0  0  0  0
 19 20  1  0  0  0  0
 19 50  1  0  0  0  0
 19 51  1  0  0  0  0
 20 21  1  0  0  0  0
 20 52  1  0  0  0  0
 20 53  1  0  0  0  0
 21 22  1  0  0  0  0
 21 54  1  0  0  0  0
 21 55  1  0  0  0  0
 22 56  1  0  0  0  0
 22 57  1  0  0  0  0
 22 58  1  0  0  0  0
M  END
