decoy-195
 OpenBabel06062114503D

 54 55  0  0  0  0  0  0  0  0999 V2000
    0.0900    1.5700   -0.1160 C   0  0  0  0  0  0  0  0  0  0  0  0
    0.0520    0.1890   -0.1370 C   0  0  0  0  0  0  0  0  0  0  0  0
    1.3110    2.2540   -0.0320 C   0  0  0  0  0  0  0  0  0  0  0  0
   -1.1430    2.1050   -0.1990 O   0  0  0  0  0  0  0  0  0  0  0  0
    1.2360   -0.5580   -0.0700 C   0  0  0  0  0  0  0  0  0  0  0  0
   -1.2060   -0.2780   -0.2360 O   0  0  0  0  0  0  0  0  0  0  0  0
    2.5330    1.5320    0.0380 C   0  0  0  0  0  0  0  0  0  0  0  0
   -1.9740    0.9330   -0.1020 C   0  0  0  0  0  0  0  0  0  0  0  0
    2.4910    0.0980    0.0260 C   0  0  0  0  0  0  0  0  0  0  0  0
    3.8270    2.2750    0.1120 C   0  0  0  0  0  0  0  0  0  0  0  0
    3.7060   -0.7740    0.0850 C   0  0  0  0  0  0  0  0  0  0  0  0
    3.7060    3.7080    0.0030 O   0  0  0  0  0  0  0  0  0  0  0  0
    4.1060   -1.3090   -1.3160 C   0  0  0  0  0  0  0  0  0  0  0  0
    4.9440    4.4380    0.0870 C   0  0  0  0  0  0  0  0  0  0  0  0
    5.3680   -2.1990   -1.2770 C   0  0  0  0  0  0  0  0  0  0  0  0
    4.6550    5.9460   -0.0370 C   0  0  0  0  0  0  0  0  0  0  0  0
    3.7860    6.3550    1.0350 O   0  0  0  0  0  0  0  0  0  0  0  0
    3.4360    7.7510    1.0250 C   0  0  0  0  0  0  0  0  0  0  0  0
    2.5080    8.0530    2.2170 C   0  0  0  0  0  0  0  0  0  0  0  0
    3.1940    7.7540    3.4460 O   0  0  0  0  0  0  0  0  0  0  0  0
    2.4230    7.9870    4.6390 C   0  0  0  0  0  0  0  0  0  0  0  0
    3.2800    7.6230    5.8730 C   0  0  0  0  0  0  0  0  0  0  0  0
    2.5280    7.8430    7.2110 C   0  0  0  0  0  0  0  0  0  0  0  0
    3.3850    7.4790    8.4430 C   0  0  0  0  0  0  0  0  0  0  0  0
    1.2880    3.2740   -0.0240 H   0  0  0  0  0  0  0  0  0  0  0  0
    1.1730   -1.5790   -0.0910 H   0  0  0  0  0  0  0  0  0  0  0  0
   -2.4760    0.9320    0.8690 H   0  0  0  0  0  0  0  0  0  0  0  0
   -2.7370    0.9650   -0.8820 H   0  0  0  0  0  0  0  0  0  0  0  0
    4.2980    2.0360    1.0690 H   0  0  0  0  0  0  0  0  0  0  0  0
    4.4690    1.9220   -0.7000 H   0  0  0  0  0  0  0  0  0  0  0  0
    4.5570   -0.2440    0.5120 H   0  0  0  0  0  0  0  0  0  0  0  0
    3.5130   -1.6180    0.7530 H   0  0  0  0  0  0  0  0  0  0  0  0
    3.2840   -1.8950   -1.7350 H   0  0  0  0  0  0  0  0  0  0  0  0
    4.2970   -0.4650   -1.9860 H   0  0  0  0  0  0  0  0  0  0  0  0
    5.4360    4.2480    1.0460 H   0  0  0  0  0  0  0  0  0  0  0  0
    5.6170    4.1390   -0.7220 H   0  0  0  0  0  0  0  0  0  0  0  0
    5.6030   -2.5510   -2.2830 H   0  0  0  0  0  0  0  0  0  0  0  0
    6.2220   -1.6340   -0.8980 H   0  0  0  0  0  0  0  0  0  0  0  0
    5.2020   -3.0660   -0.6350 H   0  0  0  0  0  0  0  0  0  0  0  0
    5.6020    6.4920    0.0120 H   0  0  0  0  0  0  0  0  0  0  0  0
    4.1850    6.1390   -1.0060 H   0  0  0  0  0  0  0  0  0  0  0  0
    4.3330    8.3720    1.1060 H   0  0  0  0  0  0  0  0  0  0  0  0
    2.9120    8.0050    0.0980 H   0  0  0  0  0  0  0  0  0  0  0  0
    2.2290    9.1100    2.1870 H   0  0  0  0  0  0  0  0  0  0  0  0
    1.6030    7.4460    2.1250 H   0  0  0  0  0  0  0  0  0  0  0  0
    2.1320    9.0400    4.6990 H   0  0  0  0  0  0  0  0  0  0  0  0
    1.5210    7.3670    4.6310 H   0  0  0  0  0  0  0  0  0  0  0  0
    3.5790    6.5740    5.7950 H   0  0  0  0  0  0  0  0  0  0  0  0
    4.1860    8.2370    5.8640 H   0  0  0  0  0  0  0  0  0  0  0  0
    2.2290    8.8910    7.2920 H   0  0  0  0  0  0  0  0  0  0  0  0
    1.6220    7.2290    7.2230 H   0  0  0  0  0  0  0  0  0  0  0  0
    2.8120    7.6500    9.3560 H   0  0  0  0  0  0  0  0  0  0  0  0
    3.6760    6.4270    8.4070 H   0  0  0  0  0  0  0  0  0  0  0  0
    4.2850    8.0960    8.4760 H   0  0  0  0  0  0  0  0  0  0  0  0
  1  3  2  0  0  0  0
  1  2  1  0  0  0  0
  1  4  1  0  0  0  0
  2  5  2  0  0  0  0
  2  6  1  0  0  0  0
  3 25  1  0  0  0  0
  3  7  1  0  0  0  0
  4  8  1  0  0  0  0
  5  9  1  0  0  0  0
  5 26  1  0  0  0  0
  6  8  1  0  0  0  0
  7 10  1  0  0  0  0
  7  9  2  0  0  0  0
  8 27  1  0  0  0  0
  8 28  1  0  0  0  0
  9 11  1  0  0  0  0
 10 29  1  0  0  0  0
 10 12  1  0  0  0  0
 10 30  1  0  0  0  0
 11 31  1  0  0  0  0
 11 32  1  0  0  0  0
 11 13  1  0  0  0  0
 12 14  1  0  0  0  0
 13 15  1  0  0  0  0
 13 33  1  0  0  0  0
 13 34  1  0  0  0  0
 14 35  1  0  0  0  0
 14 16  1  0  0  0  0
 14 36  1  0  0  0  0
 15 38  1  0  0  0  0
 15 39  1  0  0  0  0
 15 37  1  0  0  0  0
 16 40  1  0  0  0  0
 16 17  1  0  0  0  0
 16 41  1  0  0  0  0
 17 18  1  0  0  0  0
 18 42  1  0  0  0  0
 18 19  1  0  0  0  0
 18 43  1  0  0  0  0
 19 20  1  0  0  0  0
 19 44  1  0  0  0  0
 19 45  1  0  0  0  0
 20 21  1  0  0  0  0
 21 46  1  0  0  0  0
 21 22  1  0  0  0  0
 21 47  1  0  0  0  0
 22 23  1  0  0  0  0
 22 48  1  0  0  0  0
 22 49  1  0  0  0  0
 23 51  1  0  0  0  0
 23 50  1  0  0  0  0
 23 24  1  0  0  0  0
 24 54  1  0  0  0  0
 24 52  1  0  0  0  0
 24 53  1  0  0  0  0
M  END
