decoy-131
 OpenBabel06062114503D

 50 53  0  0  0  0  0  0  0  0999 V2000
    0.0330    0.7330   -0.5290 C   0  0  0  0  0  0  0  0  0  0  0  0
   -0.3350   -0.5280   -0.1460 C   0  0  0  0  0  0  0  0  0  0  0  0
    1.1110    1.3190    0.1350 C   0  0  0  0  0  0  0  0  0  0  0  0
   -0.6560    1.3750   -1.4990 C   0  0  0  0  0  0  0  0  0  0  0  0
   -1.0660   -0.6560    1.0350 C   0  0  0  0  0  0  0  0  0  0  0  0
    0.0310   -1.5960   -0.8900 C   0  0  0  0  0  0  0  0  0  0  0  0
    0.8880    2.2430    1.1830 C   0  0  0  0  0  0  0  0  0  0  0  0
    2.4390    1.0040   -0.2340 C   0  0  0  0  0  0  0  0  0  0  0  0
   -0.3820    2.6540   -1.9530 C   0  0  0  0  0  0  0  0  0  0  0  0
   -0.4210   -1.0200    2.2400 C   0  0  0  0  0  0  0  0  0  0  0  0
   -2.4630   -0.4300    1.0440 C   0  0  0  0  0  0  0  0  0  0  0  0
   -0.2720   -2.9130   -0.5900 C   0  0  0  0  0  0  0  0  0  0  0  0
    1.9750    2.8390    1.8490 C   0  0  0  0  0  0  0  0  0  0  0  0
    3.5240    1.6020    0.4330 C   0  0  0  0  0  0  0  0  0  0  0  0
    0.7180    2.8960   -2.8070 C   0  0  0  0  0  0  0  0  0  0  0  0
   -1.2070    3.7330   -1.5650 C   0  0  0  0  0  0  0  0  0  0  0  0
   -1.1580   -1.1550    3.4300 C   0  0  0  0  0  0  0  0  0  0  0  0
   -3.1980   -0.5660    2.2360 C   0  0  0  0  0  0  0  0  0  0  0  0
   -1.5730   -3.4220   -0.8070 C   0  0  0  0  0  0  0  0  0  0  0  0
    0.7260   -3.7650   -0.0650 C   0  0  0  0  0  0  0  0  0  0  0  0
    3.2920    2.5190    1.4740 C   0  0  0  0  0  0  0  0  0  0  0  0
    0.9950    4.2010   -3.2550 C   0  0  0  0  0  0  0  0  0  0  0  0
   -0.9280    5.0370   -2.0140 C   0  0  0  0  0  0  0  0  0  0  0  0
   -2.5460   -0.9280    3.4280 C   0  0  0  0  0  0  0  0  0  0  0  0
   -1.8740   -4.7590   -0.4890 C   0  0  0  0  0  0  0  0  0  0  0  0
    0.4210   -5.1030    0.2520 C   0  0  0  0  0  0  0  0  0  0  0  0
    0.1730    5.2720   -2.8580 C   0  0  0  0  0  0  0  0  0  0  0  0
   -0.8780   -5.5990    0.0410 C   0  0  0  0  0  0  0  0  0  0  0  0
   -1.4380    0.9240   -1.9190 H   0  0  0  0  0  0  0  0  0  0  0  0
    0.5810   -1.4530   -1.7080 H   0  0  0  0  0  0  0  0  0  0  0  0
   -0.0640    2.4870    1.4670 H   0  0  0  0  0  0  0  0  0  0  0  0
    2.6260    0.3410   -0.9920 H   0  0  0  0  0  0  0  0  0  0  0  0
    0.5890   -1.1890    2.2580 H   0  0  0  0  0  0  0  0  0  0  0  0
   -2.9530   -0.1690    0.1840 H   0  0  0  0  0  0  0  0  0  0  0  0
    1.8070    3.5060    2.6050 H   0  0  0  0  0  0  0  0  0  0  0  0
    4.4820    1.3700    0.1610 H   0  0  0  0  0  0  0  0  0  0  0  0
    1.3250    2.1280   -3.1060 H   0  0  0  0  0  0  0  0  0  0  0  0
   -2.0100    3.5800   -0.9480 H   0  0  0  0  0  0  0  0  0  0  0  0
   -0.6850   -1.4190    4.2970 H   0  0  0  0  0  0  0  0  0  0  0  0
   -4.2070   -0.4020    2.2350 H   0  0  0  0  0  0  0  0  0  0  0  0
   -2.3090   -2.8230   -1.1920 H   0  0  0  0  0  0  0  0  0  0  0  0
    1.6750   -3.4180    0.0980 H   0  0  0  0  0  0  0  0  0  0  0  0
    4.0810    2.9530    1.9580 H   0  0  0  0  0  0  0  0  0  0  0  0
    1.7940    4.3720   -3.8690 H   0  0  0  0  0  0  0  0  0  0  0  0
   -1.5250    5.8160   -1.7270 H   0  0  0  0  0  0  0  0  0  0  0  0
   -3.0820   -1.0270    4.2940 H   0  0  0  0  0  0  0  0  0  0  0  0
   -2.8180   -5.1210   -0.6430 H   0  0  0  0  0  0  0  0  0  0  0  0
    1.1450   -5.7140    0.6360 H   0  0  0  0  0  0  0  0  0  0  0  0
    0.3750    6.2200   -3.1830 H   0  0  0  0  0  0  0  0  0  0  0  0
   -1.0980   -6.5710    0.2720 H   0  0  0  0  0  0  0  0  0  0  0  0
  1  2  1  0  0  0  0
  1  3  1  0  0  0  0
  1  4  2  0  0  0  0
  2  5  1  0  0  0  0
  2  6  2  0  0  0  0
  3  7  2  0  0  0  0
  3  8  1  0  0  0  0
  4  9  1  0  0  0  0
  4 29  1  0  0  0  0
  5 11  2  0  0  0  0
  5 10  1  0  0  0  0
  6 12  1  0  0  0  0
  6 30  1  0  0  0  0
  7 31  1  0  0  0  0
  7 13  1  0  0  0  0
  8 14  2  0  0  0  0
  8 32  1  0  0  0  0
  9 16  2  0  0  0  0
  9 15  1  0  0  0  0
 10 33  1  0  0  0  0
 10 17  2  0  0  0  0
 11 18  1  0  0  0  0
 11 34  1  0  0  0  0
 12 20  2  0  0  0  0
 12 19  1  0  0  0  0
 13 35  1  0  0  0  0
 13 21  2  0  0  0  0
 14 21  1  0  0  0  0
 14 36  1  0  0  0  0
 15 22  2  0  0  0  0
 15 37  1  0  0  0  0
 16 38  1  0  0  0  0
 16 23  1  0  0  0  0
 17 39  1  0  0  0  0
 17 24  1  0  0  0  0
 18 24  2  0  0  0  0
 18 40  1  0  0  0  0
 19 25  2  0  0  0  0
 19 41  1  0  0  0  0
 20 42  1  0  0  0  0
 20 26  1  0  0  0  0
 21 43  1  0  0  0  0
 22 27  1  0  0  0  0
 22 44  1  0  0  0  0
 23 45  1  0  0  0  0
 23 27  2  0  0  0  0
 24 46  1  0  0  0  0
 25 28  1  0  0  0  0
 25 47  1  0  0  0  0
 26 48  1  0  0  0  0
 26 28  2  0  0  0  0
 27 49  1  0  0  0  0
 28 50  1  0  0  0  0
M  END
