decoy-23
 OpenBabel06062114503D

 46 47  0  0  0  0  0  0  0  0999 V2000
    3.6610    0.5640    1.0710 C   0  0  0  0  0  0  0  0  0  0  0  0
    2.8480    0.5640   -0.0430 C   0  0  0  0  0  0  0  0  0  0  0  0
    3.5990   -0.1940    2.2170 N   0  0  0  0  0  0  0  0  0  0  0  0
    4.6230    1.4830    0.8790 N   0  0  0  0  0  0  0  0  0  0  0  0
    1.6960   -0.0930   -0.2090 O   0  0  0  0  0  0  0  0  0  0  0  0
    3.2280    1.3790   -0.9500 N   0  0  0  0  0  0  0  0  0  0  0  0
    4.3960    0.1360    3.3890 C   0  0  0  0  0  0  0  0  0  0  0  0
    2.7720   -1.3790    2.3630 C   0  0  0  0  0  0  0  0  0  0  0  0
    4.5760    2.2590   -0.6090 S   0  0  0  0  0  0  0  0  0  0  0  0
    0.5400    0.6180    0.2830 C   0  0  0  0  0  0  0  0  0  0  0  0
    5.2450   -1.0850    3.8210 C   0  0  0  0  0  0  0  0  0  0  0  0
    3.6300   -2.5790    2.8420 C   0  0  0  0  0  0  0  0  0  0  0  0
   -0.7280   -0.2400    0.0540 C   0  0  0  0  0  0  0  0  0  0  0  0
    4.4030   -2.2390    4.0100 O   0  0  0  0  0  0  0  0  0  0  0  0
   -2.0190    0.4820    0.5180 C   0  0  0  0  0  0  0  0  0  0  0  0
   -0.6030   -1.4780    0.7540 O   0  0  0  0  0  0  0  0  0  0  0  0
   -3.2090   -0.3530    0.2240 C   0  0  0  0  0  0  0  0  0  0  0  0
   -4.5790    0.1250    0.5840 C   0  0  0  0  0  0  0  0  0  0  0  0
   -5.5480   -1.0060    0.1210 C   0  0  0  0  0  0  0  0  0  0  0  0
   -4.9430    1.4410   -0.1700 C   0  0  0  0  0  0  0  0  0  0  0  0
   -4.7310    0.3200    2.1230 C   0  0  0  0  0  0  0  0  0  0  0  0
   -0.8130   -0.4600   -1.0140 H   0  0  0  0  0  0  0  0  0  0  0  0
    5.0670    0.9870    3.2520 H   0  0  0  0  0  0  0  0  0  0  0  0
    3.7190    0.3990    4.2070 H   0  0  0  0  0  0  0  0  0  0  0  0
    1.9880   -1.1790    3.1000 H   0  0  0  0  0  0  0  0  0  0  0  0
    2.2870   -1.6980    1.4440 H   0  0  0  0  0  0  0  0  0  0  0  0
    0.6430    0.8250    1.3540 H   0  0  0  0  0  0  0  0  0  0  0  0
    0.4280    1.5680   -0.2500 H   0  0  0  0  0  0  0  0  0  0  0  0
    6.0130   -1.2940    3.0710 H   0  0  0  0  0  0  0  0  0  0  0  0
    5.7450   -0.8660    4.7660 H   0  0  0  0  0  0  0  0  0  0  0  0
    2.9760   -3.4150    3.0970 H   0  0  0  0  0  0  0  0  0  0  0  0
    4.2970   -2.9060    2.0390 H   0  0  0  0  0  0  0  0  0  0  0  0
   -1.9510    0.6770    1.5900 H   0  0  0  0  0  0  0  0  0  0  0  0
   -2.0990    1.4350   -0.0090 H   0  0  0  0  0  0  0  0  0  0  0  0
    0.1790   -1.9170    0.3600 H   0  0  0  0  0  0  0  0  0  0  0  0
   -3.2060   -0.5330   -0.7820 H   0  0  0  0  0  0  0  0  0  0  0  0
   -3.0700   -1.2490    0.6960 H   0  0  0  0  0  0  0  0  0  0  0  0
   -5.4610   -1.1710   -0.9560 H   0  0  0  0  0  0  0  0  0  0  0  0
   -6.5860   -0.7480    0.3430 H   0  0  0  0  0  0  0  0  0  0  0  0
   -5.3150   -1.9450    0.6280 H   0  0  0  0  0  0  0  0  0  0  0  0
   -4.3370    2.2760    0.1840 H   0  0  0  0  0  0  0  0  0  0  0  0
   -5.9920    1.7010   -0.0110 H   0  0  0  0  0  0  0  0  0  0  0  0
   -4.7750    1.3260   -1.2430 H   0  0  0  0  0  0  0  0  0  0  0  0
   -4.4140   -0.5790    2.6560 H   0  0  0  0  0  0  0  0  0  0  0  0
   -5.7710    0.5290    2.3870 H   0  0  0  0  0  0  0  0  0  0  0  0
   -4.1250    1.1570    2.4740 H   0  0  0  0  0  0  0  0  0  0  0  0
  1  3  1  0  0  0  0
  1  2  1  0  0  0  0
  1  4  2  0  0  0  0
  2  5  1  0  0  0  0
  2  6  2  0  0  0  0
  3  8  1  0  0  0  0
  3  7  1  0  0  0  0
  4  9  1  0  0  0  0
  5 10  1  0  0  0  0
  6  9  1  0  0  0  0
  7 11  1  0  0  0  0
  7 24  1  0  0  0  0
  7 23  1  0  0  0  0
  8 12  1  0  0  0  0
  8 25  1  0  0  0  0
  8 26  1  0  0  0  0
 10 27  1  0  0  0  0
 10 13  1  0  0  0  0
 10 28  1  0  0  0  0
 11 14  1  0  0  0  0
 11 30  1  0  0  0  0
 11 29  1  0  0  0  0
 12 31  1  0  0  0  0
 12 14  1  0  0  0  0
 12 32  1  0  0  0  0
 13 22  1  0  0  0  0
 13 15  1  0  0  0  0
 13 16  1  0  0  0  0
 15 33  1  0  0  0  0
 15 17  1  0  0  0  0
 15 34  1  0  0  0  0
 16 35  1  0  0  0  0
 17 18  1  0  0  0  0
 17 37  1  0  0  0  0
 17 36  1  0  0  0  0
 18 21  1  0  0  0  0
 18 19  1  0  0  0  0
 18 20  1  0  0  0  0
 19 39  1  0  0  0  0
 19 40  1  0  0  0  0
 19 38  1  0  0  0  0
 20 42  1  0  0  0  0
 20 41  1  0  0  0  0
 20 43  1  0  0  0  0
 21 45  1  0  0  0  0
 21 46  1  0  0  0  0
 21 44  1  0  0  0  0
M  END
