decoy-702
 OpenBabel06062114513D

 62 62  0  0  0  0  0  0  0  0999 V2000
    0.1770    1.3880   -0.1170 C   0  0  0  0  0  0  0  0  0  0  0  0
    0.1690   -0.0040    0.1400 C   0  0  0  0  0  0  0  0  0  0  0  0
    1.4090    2.0100   -0.4280 C   0  0  0  0  0  0  0  0  0  0  0  0
   -1.0890    2.1700   -0.0680 C   0  0  0  0  0  0  0  0  0  0  0  0
    1.3590   -0.7520    0.0930 C   0  0  0  0  0  0  0  0  0  0  0  0
    2.6010    1.2630   -0.4740 C   0  0  0  0  0  0  0  0  0  0  0  0
   -1.6410    2.3240    1.3750 C   0  0  0  0  0  0  0  0  0  0  0  0
    2.5800   -0.1210   -0.2130 C   0  0  0  0  0  0  0  0  0  0  0  0
   -2.9470    3.1600    1.4290 C   0  0  0  0  0  0  0  0  0  0  0  0
    3.7190   -0.8350   -0.2570 N   0  0  0  0  0  0  0  0  0  0  0  0
   -3.5000    3.3130    2.8710 C   0  0  0  0  0  0  0  0  0  0  0  0
   -4.8050    4.1500    2.9240 C   0  0  0  0  0  0  0  0  0  0  0  0
   -5.3580    4.3020    4.3660 C   0  0  0  0  0  0  0  0  0  0  0  0
   -6.6640    5.1390    4.4190 C   0  0  0  0  0  0  0  0  0  0  0  0
   -7.2170    5.2920    5.8610 C   0  0  0  0  0  0  0  0  0  0  0  0
   -8.5230    6.1280    5.9140 C   0  0  0  0  0  0  0  0  0  0  0  0
   -9.0750    6.2810    7.3560 C   0  0  0  0  0  0  0  0  0  0  0  0
  -10.3810    7.1180    7.4090 C   0  0  0  0  0  0  0  0  0  0  0  0
  -10.9340    7.2710    8.8510 C   0  0  0  0  0  0  0  0  0  0  0  0
  -12.2400    8.1070    8.9040 C   0  0  0  0  0  0  0  0  0  0  0  0
  -12.7930    8.2600   10.3460 C   0  0  0  0  0  0  0  0  0  0  0  0
  -14.0980    9.0970   10.3980 C   0  0  0  0  0  0  0  0  0  0  0  0
  -14.6510    9.2500   11.8320 C   0  0  0  0  0  0  0  0  0  0  0  0
   -0.7080   -0.4830    0.3580 H   0  0  0  0  0  0  0  0  0  0  0  0
    1.4500    3.0140   -0.6190 H   0  0  0  0  0  0  0  0  0  0  0  0
   -0.9350    3.1690   -0.4870 H   0  0  0  0  0  0  0  0  0  0  0  0
   -1.8340    1.6720   -0.6950 H   0  0  0  0  0  0  0  0  0  0  0  0
    1.3300   -1.7570    0.2820 H   0  0  0  0  0  0  0  0  0  0  0  0
    3.4820    1.7330   -0.6980 H   0  0  0  0  0  0  0  0  0  0  0  0
   -1.8390    1.3350    1.7960 H   0  0  0  0  0  0  0  0  0  0  0  0
   -0.8810    2.8110    1.9940 H   0  0  0  0  0  0  0  0  0  0  0  0
   -2.7510    4.1540    1.0160 H   0  0  0  0  0  0  0  0  0  0  0  0
   -3.7050    2.6760    0.8060 H   0  0  0  0  0  0  0  0  0  0  0  0
    3.7030   -1.7880   -0.0770 H   0  0  0  0  0  0  0  0  0  0  0  0
    4.5590   -0.3990   -0.4690 H   0  0  0  0  0  0  0  0  0  0  0  0
   -3.6970    2.3200    3.2830 H   0  0  0  0  0  0  0  0  0  0  0  0
   -2.7410    3.7970    3.4930 H   0  0  0  0  0  0  0  0  0  0  0  0
   -4.6080    5.1430    2.5110 H   0  0  0  0  0  0  0  0  0  0  0  0
   -5.5640    3.6660    2.3010 H   0  0  0  0  0  0  0  0  0  0  0  0
   -5.5550    3.3090    4.7780 H   0  0  0  0  0  0  0  0  0  0  0  0
   -4.6000    4.7860    4.9880 H   0  0  0  0  0  0  0  0  0  0  0  0
   -6.4670    6.1330    4.0060 H   0  0  0  0  0  0  0  0  0  0  0  0
   -7.4220    4.6550    3.7960 H   0  0  0  0  0  0  0  0  0  0  0  0
   -7.4140    4.2980    6.2730 H   0  0  0  0  0  0  0  0  0  0  0  0
   -6.4590    5.7750    6.4830 H   0  0  0  0  0  0  0  0  0  0  0  0
   -8.3260    7.1220    5.5010 H   0  0  0  0  0  0  0  0  0  0  0  0
   -9.2810    5.6450    5.2910 H   0  0  0  0  0  0  0  0  0  0  0  0
   -9.2720    5.2880    7.7680 H   0  0  0  0  0  0  0  0  0  0  0  0
   -8.3170    6.7650    7.9780 H   0  0  0  0  0  0  0  0  0  0  0  0
  -10.1840    8.1110    6.9960 H   0  0  0  0  0  0  0  0  0  0  0  0
  -11.1390    6.6340    6.7860 H   0  0  0  0  0  0  0  0  0  0  0  0
  -11.1310    6.2770    9.2630 H   0  0  0  0  0  0  0  0  0  0  0  0
  -10.1760    7.7540    9.4730 H   0  0  0  0  0  0  0  0  0  0  0  0
  -12.0430    9.1010    8.4910 H   0  0  0  0  0  0  0  0  0  0  0  0
  -12.9980    7.6240    8.2820 H   0  0  0  0  0  0  0  0  0  0  0  0
  -12.9900    7.2670   10.7590 H   0  0  0  0  0  0  0  0  0  0  0  0
  -12.0350    8.7440   10.9690 H   0  0  0  0  0  0  0  0  0  0  0  0
  -13.9070   10.0930    9.9900 H   0  0  0  0  0  0  0  0  0  0  0  0
  -14.8620    8.6160    9.7800 H   0  0  0  0  0  0  0  0  0  0  0  0
  -15.5660    9.8450   11.8130 H   0  0  0  0  0  0  0  0  0  0  0  0
  -14.8800    8.2720   12.2590 H   0  0  0  0  0  0  0  0  0  0  0  0
  -13.9210    9.7540   12.4690 H   0  0  0  0  0  0  0  0  0  0  0  0
  1  4  1  0  0  0  0
  1  2  2  0  0  0  0
  1  3  1  0  0  0  0
  2 24  1  0  0  0  0
  2  5  1  0  0  0  0
  3  6  2  0  0  0  0
  3 25  1  0  0  0  0
  4  7  1  0  0  0  0
  4 26  1  0  0  0  0
  4 27  1  0  0  0  0
  5 28  1  0  0  0  0
  5  8  2  0  0  0  0
  6  8  1  0  0  0  0
  6 29  1  0  0  0  0
  7  9  1  0  0  0  0
  7 30  1  0  0  0  0
  7 31  1  0  0  0  0
  8 10  1  0  0  0  0
  9 11  1  0  0  0  0
  9 32  1  0  0  0  0
  9 33  1  0  0  0  0
 10 34  1  0  0  0  0
 10 35  1  0  0  0  0
 11 12  1  0  0  0  0
 11 36  1  0  0  0  0
 11 37  1  0  0  0  0
 12 13  1  0  0  0  0
 12 38  1  0  0  0  0
 12 39  1  0  0  0  0
 13 14  1  0  0  0  0
 13 40  1  0  0  0  0
 13 41  1  0  0  0  0
 14 15  1  0  0  0  0
 14 42  1  0  0  0  0
 14 43  1  0  0  0  0
 15 16  1  0  0  0  0
 15 44  1  0  0  0  0
 15 45  1  0  0  0  0
 16 17  1  0  0  0  0
 16 46  1  0  0  0  0
 16 47  1  0  0  0  0
 17 18  1  0  0  0  0
 17 48  1  0  0  0  0
 17 49  1  0  0  0  0
 18 19  1  0  0  0  0
 18 50  1  0  0  0  0
 18 51  1  0  0  0  0
 19 20  1  0  0  0  0
 19 52  1  0  0  0  0
 19 53  1  0  0  0  0
 20 21  1  0  0  0  0
 20 54  1  0  0  0  0
 20 55  1  0  0  0  0
 21 22  1  0  0  0  0
 21 56  1  0  0  0  0
 21 57  1  0  0  0  0
 22 23  1  0  0  0  0
 22 58  1  0  0  0  0
 22 59  1  0  0  0  0
 23 61  1  0  0  0  0
 23 62  1  0  0  0  0
 23 60  1  0  0  0  0
M  END
