decoy-887
 OpenBabel06062114513D

 20 20  0  0  0  0  0  0  0  0999 V2000
   -0.0210    1.7700    0.0830 S   0  0  0  0  0  0  0  0  0  0  0  0
    0.0100    0.0260    0.0680 C   0  0  0  0  0  0  0  0  0  0  0  0
    1.4920    2.3550    0.5560 O   0  0  0  0  0  0  0  0  0  0  0  0
   -0.4090    2.4390   -1.4210 O   0  0  0  0  0  0  0  0  0  0  0  0
   -1.1570    2.3020    1.2150 O   0  0  0  0  0  0  0  0  0  0  0  0
    0.3150   -0.7130    1.2350 C   0  0  0  0  0  0  0  0  0  0  0  0
   -0.2750   -0.6640   -1.1290 C   0  0  0  0  0  0  0  0  0  0  0  0
    0.3310   -2.1200    1.1900 C   0  0  0  0  0  0  0  0  0  0  0  0
    0.5990   -0.1230    2.4260 O   0  0  0  0  0  0  0  0  0  0  0  0
   -0.2580   -2.0730   -1.1730 C   0  0  0  0  0  0  0  0  0  0  0  0
    0.0470   -2.8090   -0.0070 C   0  0  0  0  0  0  0  0  0  0  0  0
   -0.5360   -2.7090   -2.3410 O   0  0  0  0  0  0  0  0  0  0  0  0
    0.0740   -4.5520   -0.0370 S   0  0  0  0  0  0  0  0  0  0  0  0
   -1.4400   -5.1270   -0.5190 O   0  0  0  0  0  0  0  0  0  0  0  0
    1.2070   -5.0740   -1.1780 O   0  0  0  0  0  0  0  0  0  0  0  0
    0.4610   -5.2340    1.4600 O   0  0  0  0  0  0  0  0  0  0  0  0
   -0.4970   -0.1450   -1.9810 H   0  0  0  0  0  0  0  0  0  0  0  0
    0.5540   -2.6410    2.0410 H   0  0  0  0  0  0  0  0  0  0  0  0
    0.5440    0.8420    2.2810 H   0  0  0  0  0  0  0  0  0  0  0  0
   -0.7130   -2.0040   -2.9990 H   0  0  0  0  0  0  0  0  0  0  0  0
  1  3  2  0  0  0  0
  1  5  2  0  0  0  0
  1  2  1  0  0  0  0
  1  4  1  0  0  0  0
  2  6  2  0  0  0  0
  2  7  1  0  0  0  0
  6  9  1  0  0  0  0
  6  8  1  0  0  0  0
  7 10  2  0  0  0  0
  7 17  1  0  0  0  0
  8 18  1  0  0  0  0
  8 11  2  0  0  0  0
  9 19  1  0  0  0  0
 10 11  1  0  0  0  0
 10 12  1  0  0  0  0
 11 13  1  0  0  0  0
 12 20  1  0  0  0  0
 13 16  2  0  0  0  0
 13 14  2  0  0  0  0
 13 15  1  0  0  0  0
M  END
