decoy-119
 OpenBabel06062114503D

 44 48  0  0  0  0  0  0  0  0999 V2000
   -0.2510    1.2120    0.0030 C   0  0  0  0  0  0  0  0  0  0  0  0
   -0.1470   -0.1670   -0.1900 C   0  0  0  0  0  0  0  0  0  0  0  0
    0.9070    2.0040    0.2330 C   0  0  0  0  0  0  0  0  0  0  0  0
   -1.9110    1.7060   -0.0870 S   0  0  0  0  0  0  0  0  0  0  0  0
   -1.3180   -0.7790   -0.3950 N   0  0  0  0  0  0  0  0  0  0  0  0
    1.0930   -0.8140   -0.1640 C   0  0  0  0  0  0  0  0  0  0  0  0
    2.1820    1.3530    0.2620 C   0  0  0  0  0  0  0  0  0  0  0  0
    0.7600    3.7370    0.4740 S   0  0  0  0  0  0  0  0  0  0  0  0
   -2.3740    0.0540   -0.3760 C   0  0  0  0  0  0  0  0  0  0  0  0
    2.2490   -0.0500    0.0620 C   0  0  0  0  0  0  0  0  0  0  0  0
    3.4910    2.0270    0.4900 C   0  0  0  0  0  0  0  0  0  0  0  0
    1.4120    4.1560    1.9770 O   0  0  0  0  0  0  0  0  0  0  0  0
    1.6740    4.5490   -0.6940 O   0  0  0  0  0  0  0  0  0  0  0  0
   -0.7850    4.4190    0.4230 O   0  0  0  0  0  0  0  0  0  0  0  0
   -3.7140   -0.3970   -0.5740 C   0  0  0  0  0  0  0  0  0  0  0  0
   -3.9840   -1.7730   -0.8030 C   0  0  0  0  0  0  0  0  0  0  0  0
   -4.8170    0.5010   -0.5500 C   0  0  0  0  0  0  0  0  0  0  0  0
   -5.3040   -2.2150   -0.9980 C   0  0  0  0  0  0  0  0  0  0  0  0
   -6.1380    0.0500   -0.7460 C   0  0  0  0  0  0  0  0  0  0  0  0
   -6.3650   -1.3160   -0.9700 C   0  0  0  0  0  0  0  0  0  0  0  0
   -5.8160   -3.8400   -1.2870 S   0  0  0  0  0  0  0  0  0  0  0  0
   -7.5450   -1.9110   -1.1730 N   0  0  0  0  0  0  0  0  0  0  0  0
   -7.4540   -3.2440   -1.3600 C   0  0  0  0  0  0  0  0  0  0  0  0
   -8.6030   -4.0600   -1.5930 C   0  0  0  0  0  0  0  0  0  0  0  0
   -9.9010   -3.4880   -1.6370 C   0  0  0  0  0  0  0  0  0  0  0  0
   -8.5000   -5.4610   -1.7900 C   0  0  0  0  0  0  0  0  0  0  0  0
  -11.0440   -4.2770   -1.8650 C   0  0  0  0  0  0  0  0  0  0  0  0
   -9.6400   -6.2550   -2.0190 C   0  0  0  0  0  0  0  0  0  0  0  0
  -10.9170   -5.6650   -2.0570 C   0  0  0  0  0  0  0  0  0  0  0  0
  -12.0070   -6.4220   -2.2760 N   0  0  0  0  0  0  0  0  0  0  0  0
    1.1570   -1.8240   -0.3060 H   0  0  0  0  0  0  0  0  0  0  0  0
    3.1500   -0.5350    0.0790 H   0  0  0  0  0  0  0  0  0  0  0  0
    3.4200    3.0990    0.6410 H   0  0  0  0  0  0  0  0  0  0  0  0
    3.9700    1.6040    1.3750 H   0  0  0  0  0  0  0  0  0  0  0  0
    4.1410    1.8610   -0.3720 H   0  0  0  0  0  0  0  0  0  0  0  0
   -3.2310   -2.4640   -0.8310 H   0  0  0  0  0  0  0  0  0  0  0  0
   -4.6770    1.5000   -0.3900 H   0  0  0  0  0  0  0  0  0  0  0  0
   -6.9200    0.7080   -0.7260 H   0  0  0  0  0  0  0  0  0  0  0  0
  -10.0350   -2.4830   -1.5010 H   0  0  0  0  0  0  0  0  0  0  0  0
   -7.5930   -5.9300   -1.7700 H   0  0  0  0  0  0  0  0  0  0  0  0
  -11.9660   -3.8350   -1.8900 H   0  0  0  0  0  0  0  0  0  0  0  0
   -9.5340   -7.2630   -2.1570 H   0  0  0  0  0  0  0  0  0  0  0  0
  -12.8860   -6.0120   -2.3020 H   0  0  0  0  0  0  0  0  0  0  0  0
  -11.9170   -7.3790   -2.4080 H   0  0  0  0  0  0  0  0  0  0  0  0
  1  3  2  0  0  0  0
  1  2  1  0  0  0  0
  1  4  1  0  0  0  0
  2  6  2  0  0  0  0
  2  5  1  0  0  0  0
  3  7  1  0  0  0  0
  3  8  1  0  0  0  0
  4  9  1  0  0  0  0
  5  9  2  0  0  0  0
  6 10  1  0  0  0  0
  6 31  1  0  0  0  0
  7 11  1  0  0  0  0
  7 10  2  0  0  0  0
  8 12  2  0  0  0  0
  8 13  2  0  0  0  0
  8 14  1  0  0  0  0
  9 15  1  0  0  0  0
 10 32  1  0  0  0  0
 11 33  1  0  0  0  0
 11 34  1  0  0  0  0
 11 35  1  0  0  0  0
 15 17  2  0  0  0  0
 15 16  1  0  0  0  0
 16 18  2  0  0  0  0
 16 36  1  0  0  0  0
 17 37  1  0  0  0  0
 17 19  1  0  0  0  0
 18 20  1  0  0  0  0
 18 21  1  0  0  0  0
 19 38  1  0  0  0  0
 19 20  2  0  0  0  0
 20 22  1  0  0  0  0
 21 23  1  0  0  0  0
 22 23  2  0  0  0  0
 23 24  1  0  0  0  0
 24 25  2  0  0  0  0
 24 26  1  0  0  0  0
 25 39  1  0  0  0  0
 25 27  1  0  0  0  0
 26 40  1  0  0  0  0
 26 28  2  0  0  0  0
 27 29  2  0  0  0  0
 27 41  1  0  0  0  0
 28 29  1  0  0  0  0
 28 42  1  0  0  0  0
 29 30  1  0  0  0  0
 30 43  1  0  0  0  0
 30 44  1  0  0  0  0
M  END
