decoy-509
 OpenBabel06062114513D

 41 40  0  0  0  0  0  0  0  0999 V2000
    0.1870    1.4660   -0.5020 C   0  0  0  0  0  0  0  0  0  0  0  0
   -0.0880   -0.0130   -0.1690 C   0  0  0  0  0  0  0  0  0  0  0  0
    1.6620    1.9010   -0.3350 C   0  0  0  0  0  0  0  0  0  0  0  0
   -0.4980    2.0140   -1.7700 C   0  0  0  0  0  0  0  0  0  0  0  0
   -1.5630   -0.5760   -0.0190 C   0  0  0  0  0  0  0  0  0  0  0  0
    0.6180   -0.7850   -1.0670 F   0  0  0  0  0  0  0  0  0  0  0  0
    0.4420   -0.2890    1.0750 F   0  0  0  0  0  0  0  0  0  0  0  0
    1.8360    3.3660    0.2300 C   0  0  0  0  0  0  0  0  0  0  0  0
    2.3990    1.0970    0.5060 F   0  0  0  0  0  0  0  0  0  0  0  0
    2.3740    1.7340   -1.5050 F   0  0  0  0  0  0  0  0  0  0  0  0
   -1.7700    2.8980   -1.4640 C   0  0  0  0  0  0  0  0  0  0  0  0
    0.3020    2.8020   -2.5710 F   0  0  0  0  0  0  0  0  0  0  0  0
   -0.7640    1.0180   -2.6820 F   0  0  0  0  0  0  0  0  0  0  0  0
   -1.7060   -2.1190    0.2970 C   0  0  0  0  0  0  0  0  0  0  0  0
   -2.1790    0.1240    0.9970 F   0  0  0  0  0  0  0  0  0  0  0  0
   -2.3060   -0.3510   -1.1500 F   0  0  0  0  0  0  0  0  0  0  0  0
    3.2860    3.8010    0.6780 C   0  0  0  0  0  0  0  0  0  0  0  0
    1.4100    4.2770   -0.7040 F   0  0  0  0  0  0  0  0  0  0  0  0
    0.9880    3.5010    1.3080 F   0  0  0  0  0  0  0  0  0  0  0  0
   -2.6880    3.2610   -2.6920 C   0  0  0  0  0  0  0  0  0  0  0  0
   -2.5560    2.3050   -0.5120 F   0  0  0  0  0  0  0  0  0  0  0  0
   -1.3500    4.0600   -0.8580 F   0  0  0  0  0  0  0  0  0  0  0  0
   -3.1670   -2.6540    0.4590 C   0  0  0  0  0  0  0  0  0  0  0  0
   -1.1100   -2.8540   -0.7050 F   0  0  0  0  0  0  0  0  0  0  0  0
   -1.0340   -2.4420    1.4570 F   0  0  0  0  0  0  0  0  0  0  0  0
    3.4560    5.3010    1.0850 C   0  0  0  0  0  0  0  0  0  0  0  0
    3.6920    3.0460    1.7590 F   0  0  0  0  0  0  0  0  0  0  0  0
    4.1810    3.5370   -0.3370 F   0  0  0  0  0  0  0  0  0  0  0  0
   -3.8900    4.2130   -2.3900 C   0  0  0  0  0  0  0  0  0  0  0  0
   -1.9370    3.8490   -3.6870 F   0  0  0  0  0  0  0  0  0  0  0  0
   -3.2070    2.1020   -3.2320 F   0  0  0  0  0  0  0  0  0  0  0  0
   -3.1690   -4.0000    0.7470 F   0  0  0  0  0  0  0  0  0  0  0  0
   -3.8360   -2.0290    1.4850 F   0  0  0  0  0  0  0  0  0  0  0  0
   -3.9120   -2.4990   -0.6860 F   0  0  0  0  0  0  0  0  0  0  0  0
    3.2340    6.1570    0.0320 F   0  0  0  0  0  0  0  0  0  0  0  0
    2.6040    5.6550    2.1040 F   0  0  0  0  0  0  0  0  0  0  0  0
    4.7360    5.5500    1.5250 F   0  0  0  0  0  0  0  0  0  0  0  0
   -4.7490    3.6840   -1.4560 F   0  0  0  0  0  0  0  0  0  0  0  0
   -3.4750    5.4420   -1.9340 F   0  0  0  0  0  0  0  0  0  0  0  0
   -4.6320    4.4420   -3.5260 F   0  0  0  0  0  0  0  0  0  0  0  0
   -0.2890    1.9550    0.2580 H   0  0  0  0  0  0  0  0  0  0  0  0
  1  3  1  0  0  0  0
  1  2  1  0  0  0  0
  1 41  1  0  0  0  0
  1  4  1  0  0  0  0
  2  5  1  0  0  0  0
  2  7  1  0  0  0  0
  2  6  1  0  0  0  0
  3  8  1  0  0  0  0
  3  9  1  0  0  0  0
  3 10  1  0  0  0  0
  4 11  1  0  0  0  0
  4 12  1  0  0  0  0
  4 13  1  0  0  0  0
  5 14  1  0  0  0  0
  5 15  1  0  0  0  0
  5 16  1  0  0  0  0
  8 17  1  0  0  0  0
  8 19  1  0  0  0  0
  8 18  1  0  0  0  0
 11 22  1  0  0  0  0
 11 21  1  0  0  0  0
 11 20  1  0  0  0  0
 14 23  1  0  0  0  0
 14 25  1  0  0  0  0
 14 24  1  0  0  0  0
 17 26  1  0  0  0  0
 17 27  1  0  0  0  0
 17 28  1  0  0  0  0
 20 29  1  0  0  0  0
 20 30  1  0  0  0  0
 20 31  1  0  0  0  0
 23 32  1  0  0  0  0
 23 33  1  0  0  0  0
 23 34  1  0  0  0  0
 26 37  1  0  0  0  0
 26 36  1  0  0  0  0
 26 35  1  0  0  0  0
 29 39  1  0  0  0  0
 29 38  1  0  0  0  0
 29 40  1  0  0  0  0
M  END
