decoy-60
 OpenBabel06062114503D

 33 34  0  0  0  0  0  0  0  0999 V2000
    1.0850   -0.4000   -0.1960 C   0  0  0  0  0  0  0  0  0  0  0  0
    1.2920    0.6570    0.7360 C   0  0  0  0  0  0  0  0  0  0  0  0
   -0.1830   -0.5450   -0.7710 C   0  0  0  0  0  0  0  0  0  0  0  0
    2.1520   -1.2710   -0.5090 C   0  0  0  0  0  0  0  0  0  0  0  0
    2.5630    0.8240    1.3310 C   0  0  0  0  0  0  0  0  0  0  0  0
    0.2200    1.5000    1.0370 C   0  0  0  0  0  0  0  0  0  0  0  0
   -1.2020    0.2920   -0.4540 C   0  0  0  0  0  0  0  0  0  0  0  0
    3.4120   -1.0930    0.0900 C   0  0  0  0  0  0  0  0  0  0  0  0
    3.6270   -0.0390    0.9990 C   0  0  0  0  0  0  0  0  0  0  0  0
   -0.9810    1.3120    0.4530 C   0  0  0  0  0  0  0  0  0  0  0  0
   -2.5200    0.1160   -1.0750 C   0  0  0  0  0  0  0  0  0  0  0  0
    4.8460    0.1100    1.6010 O   0  0  0  0  0  0  0  0  0  0  0  0
   -3.2800   -1.1340   -0.5400 C   0  0  0  0  0  0  0  0  0  0  0  0
    5.7340    0.9780    0.8760 C   0  0  0  0  0  0  0  0  0  0  0  0
   -4.6060   -1.3640   -1.1010 C   0  0  0  0  0  0  0  0  0  0  0  0
   -5.4020   -2.4920   -0.6590 C   0  0  0  0  0  0  0  0  0  0  0  0
   -5.0710   -0.6190   -1.9550 O   0  0  0  0  0  0  0  0  0  0  0  0
   -0.3320   -1.2740   -1.4320 H   0  0  0  0  0  0  0  0  0  0  0  0
    2.0210   -2.0400   -1.1710 H   0  0  0  0  0  0  0  0  0  0  0  0
    2.7230    1.5750    2.0080 H   0  0  0  0  0  0  0  0  0  0  0  0
    0.3340    2.2440    1.6870 H   0  0  0  0  0  0  0  0  0  0  0  0
    4.1760   -1.7330   -0.1390 H   0  0  0  0  0  0  0  0  0  0  0  0
   -1.7220    1.9280    0.6990 H   0  0  0  0  0  0  0  0  0  0  0  0
   -3.1510    0.9940   -0.9030 H   0  0  0  0  0  0  0  0  0  0  0  0
   -2.3940    0.0310   -2.1590 H   0  0  0  0  0  0  0  0  0  0  0  0
   -2.6770   -2.0250   -0.7350 H   0  0  0  0  0  0  0  0  0  0  0  0
   -3.3850   -1.0310    0.5440 H   0  0  0  0  0  0  0  0  0  0  0  0
    5.9450    0.5860   -0.1220 H   0  0  0  0  0  0  0  0  0  0  0  0
    6.6740    1.0380    1.4240 H   0  0  0  0  0  0  0  0  0  0  0  0
    5.3230    1.9870    0.7920 H   0  0  0  0  0  0  0  0  0  0  0  0
   -4.8700   -3.4230   -0.8620 H   0  0  0  0  0  0  0  0  0  0  0  0
   -6.3670   -2.5310   -1.1710 H   0  0  0  0  0  0  0  0  0  0  0  0
   -5.5880   -2.4170    0.4140 H   0  0  0  0  0  0  0  0  0  0  0  0
  1  2  2  0  0  0  0
  1  3  1  0  0  0  0
  1  4  1  0  0  0  0
  2  6  1  0  0  0  0
  2  5  1  0  0  0  0
  3  7  2  0  0  0  0
  3 18  1  0  0  0  0
  4  8  2  0  0  0  0
  4 19  1  0  0  0  0
  5 20  1  0  0  0  0
  5  9  2  0  0  0  0
  6 21  1  0  0  0  0
  6 10  2  0  0  0  0
  7 10  1  0  0  0  0
  7 11  1  0  0  0  0
  8  9  1  0  0  0  0
  8 22  1  0  0  0  0
  9 12  1  0  0  0  0
 10 23  1  0  0  0  0
 11 24  1  0  0  0  0
 11 13  1  0  0  0  0
 11 25  1  0  0  0  0
 12 14  1  0  0  0  0
 13 27  1  0  0  0  0
 13 15  1  0  0  0  0
 13 26  1  0  0  0  0
 14 29  1  0  0  0  0
 14 28  1  0  0  0  0
 14 30  1  0  0  0  0
 15 16  1  0  0  0  0
 15 17  2  0  0  0  0
 16 33  1  0  0  0  0
 16 31  1  0  0  0  0
 16 32  1  0  0  0  0
M  END
