decoy-918
 OpenBabel06062114513D

 31 31  0  0  0  0  0  0  0  0999 V2000
    0.2500    0.4450   -1.2870 C   0  0  0  0  0  0  0  0  0  0  0  0
    1.5220    1.2250   -1.1320 C   0  0  0  0  0  0  0  0  0  0  0  0
    0.0430   -0.5350   -0.0960 C   0  0  0  0  0  0  0  0  0  0  0  0
   -0.9660    1.3900   -1.5130 C   0  0  0  0  0  0  0  0  0  0  0  0
    2.5750    1.0850   -2.0710 C   0  0  0  0  0  0  0  0  0  0  0  0
    1.7100    2.1210   -0.0490 C   0  0  0  0  0  0  0  0  0  0  0  0
   -1.0370   -1.4400   -0.3580 O   0  0  0  0  0  0  0  0  0  0  0  0
   -2.1290    0.6460   -1.8940 O   0  0  0  0  0  0  0  0  0  0  0  0
    3.7710    1.8140   -1.9330 C   0  0  0  0  0  0  0  0  0  0  0  0
    2.9050    2.8500    0.0900 C   0  0  0  0  0  0  0  0  0  0  0  0
   -1.4820   -2.4160    0.4730 C   0  0  0  0  0  0  0  0  0  0  0  0
   -3.3560    1.1620   -2.1620 C   0  0  0  0  0  0  0  0  0  0  0  0
    3.9370    2.6960   -0.8520 C   0  0  0  0  0  0  0  0  0  0  0  0
   -2.5090   -3.1830    0.0800 N   0  0  0  0  0  0  0  0  0  0  0  0
   -0.9220   -2.6380    1.6840 O   0  0  0  0  0  0  0  0  0  0  0  0
   -4.3480    0.3280   -2.5050 N   0  0  0  0  0  0  0  0  0  0  0  0
   -3.6080    2.4880   -2.0920 O   0  0  0  0  0  0  0  0  0  0  0  0
    0.3240   -0.1780   -2.1850 H   0  0  0  0  0  0  0  0  0  0  0  0
    0.9530   -1.1210    0.0600 H   0  0  0  0  0  0  0  0  0  0  0  0
   -0.1730    0.0210    0.8200 H   0  0  0  0  0  0  0  0  0  0  0  0
   -1.1840    1.9520   -0.6020 H   0  0  0  0  0  0  0  0  0  0  0  0
   -0.7340    2.1000   -2.3120 H   0  0  0  0  0  0  0  0  0  0  0  0
    2.4800    0.4500   -2.8670 H   0  0  0  0  0  0  0  0  0  0  0  0
    0.9750    2.2510    0.6490 H   0  0  0  0  0  0  0  0  0  0  0  0
    4.5210    1.7010   -2.6190 H   0  0  0  0  0  0  0  0  0  0  0  0
    3.0250    3.4920    0.8770 H   0  0  0  0  0  0  0  0  0  0  0  0
    4.8060    3.2260   -0.7520 H   0  0  0  0  0  0  0  0  0  0  0  0
   -2.8410   -3.8850    0.6610 H   0  0  0  0  0  0  0  0  0  0  0  0
   -2.9220   -3.0360   -0.7850 H   0  0  0  0  0  0  0  0  0  0  0  0
   -5.2320    0.6790   -2.6990 H   0  0  0  0  0  0  0  0  0  0  0  0
   -4.1840   -0.6260   -2.5590 H   0  0  0  0  0  0  0  0  0  0  0  0
  1  2  1  0  0  0  0
  1  3  1  0  0  0  0
  1  4  1  0  0  0  0
  1 18  1  0  0  0  0
  2  6  2  0  0  0  0
  2  5  1  0  0  0  0
  3 19  1  0  0  0  0
  3 20  1  0  0  0  0
  3  7  1  0  0  0  0
  4 21  1  0  0  0  0
  4  8  1  0  0  0  0
  4 22  1  0  0  0  0
  5  9  2  0  0  0  0
  5 23  1  0  0  0  0
  6 10  1  0  0  0  0
  6 24  1  0  0  0  0
  7 11  1  0  0  0  0
  8 12  1  0  0  0  0
  9 13  1  0  0  0  0
  9 25  1  0  0  0  0
 10 26  1  0  0  0  0
 10 13  2  0  0  0  0
 11 15  2  0  0  0  0
 11 14  1  0  0  0  0
 12 17  2  0  0  0  0
 12 16  1  0  0  0  0
 13 27  1  0  0  0  0
 14 28  1  0  0  0  0
 14 29  1  0  0  0  0
 16 30  1  0  0  0  0
 16 31  1  0  0  0  0
M  END
