
  ACD/Labs07171520403D

 64 68  0  0  0  0  0  0  0  0  1 V2000
   15.7255   -5.6793    4.9160 N   0  0  0  0  0  0  0  0  0  0  0  0
   16.4545   -5.4663    3.7230 C   0  0  0  0  0  0  0  0  0  0  0  0
   16.5635   -4.1583    3.3270 N   0  0  0  0  0  0  0  0  0  0  0  0
   16.9935   -6.4503    3.0350 N   0  0  0  0  0  0  0  0  0  0  0  0
   16.7755   -7.6633    3.5890 C   0  0  0  0  0  0  0  0  0  0  0  0
   16.0875   -7.9803    4.7360 C   0  0  0  0  0  0  0  0  0  0  0  0
   15.4875   -6.9283    5.5080 C   0  0  0  0  0  0  0  0  0  0  0  0
   14.8575   -7.1153    6.5400 O   0  0  0  0  0  0  0  0  0  0  0  0
   16.0825   -9.3223    4.9750 N   0  0  0  0  0  0  0  0  0  0  0  0
   16.7695   -9.8273    3.9700 C   0  0  0  0  0  0  0  0  0  0  0  0
   17.2125   -8.8603    3.1000 N   0  0  0  0  0  0  0  0  0  0  0  0
   17.9995   -9.0873    1.8890 C   0  0  0  0  0  0  0  0  0  0  0  0
   19.5025   -9.1313    2.1280 C   0  0  0  0  0  0  0  0  0  0  0  0
   20.1085   -8.5393    1.0580 F   0  0  0  0  0  0  0  0  0  0  0  0
   19.8085  -10.6103    2.1080 C   0  0  0  0  0  0  0  0  0  0  0  0
   21.1465  -10.8843    1.7500 O   0  0  0  0  0  0  0  0  0  0  0  0
   18.8245  -11.1053    1.0640 C   0  0  0  0  0  0  0  0  0  0  0  0
   17.6245  -10.3473    1.2940 O   0  0  0  0  0  0  0  0  0  0  0  0
   18.5245  -12.5903    1.1680 C   0  0  0  0  0  0  0  0  0  0  0  0
   17.5915  -12.9413    0.1600 O   0  0  0  0  0  0  0  0  0  0  0  0
   22.3605  -10.3043    2.6500 P   0  0  0  0  0  0  0  0  0  0  0  0
   22.3575  -10.7633    4.0800 O   0  0  0  0  0  0  0  0  0  0  0  0
   23.6935  -10.7143    1.8280 O   0  0  0  0  0  0  0  0  0  0  0  0
   22.2915   -8.6973    2.4580 O   0  0  0  0  0  0  0  0  0  0  0  0
   23.3255   -7.9063    3.0150 C   0  0  0  0  0  0  0  0  0  0  0  0
   23.0395   -6.4423    2.7050 C   0  0  0  0  0  0  0  0  0  0  0  0
   21.7945   -6.0823    3.3430 O   0  0  0  0  0  0  0  0  0  0  0  0
   24.0875   -5.4923    3.2690 C   0  0  0  0  0  0  0  0  0  0  0  0
   24.0455   -4.2873    2.5040 O   0  0  0  0  0  0  0  0  0  0  0  0
   23.5695   -5.2433    4.6700 C   0  0  0  0  0  0  0  0  0  0  0  0
   24.0675   -4.0423    5.2210 O   0  0  0  0  0  0  0  0  0  0  0  0
   22.0675   -5.2063    4.4480 C   0  0  0  0  0  0  0  0  0  0  0  0
   21.3325   -5.6593    5.5950 N   0  0  0  0  0  0  0  0  0  0  0  0
   20.8355   -4.7603    6.5720 C   0  0  0  0  0  0  0  0  0  0  0  0
   21.0205   -3.5463    6.4690 O   0  0  0  0  0  0  0  0  0  0  0  0
   20.1345   -5.2693    7.6530 N   0  0  0  0  0  0  0  0  0  0  0  0
   19.9295   -6.5533    7.7800 C   0  0  0  0  0  0  0  0  0  0  0  0
   19.2305   -7.0383    8.8620 N   0  0  0  0  0  0  0  0  0  0  0  0
   20.4345   -7.5273    6.7770 C   0  0  0  0  0  0  0  0  0  0  0  0
   21.1055   -7.0183    5.7450 C   0  0  0  0  0  0  0  0  0  0  0  0
   15.3493   -4.8742    5.3746 H   0  0  0  0  0  0  0  0  0  0  0  0
   17.0644   -3.9286    2.4926 H   0  0  0  0  0  0  0  0  0  0  0  0
   16.1421   -3.4339    3.8726 H   0  0  0  0  0  0  0  0  0  0  0  0
   16.9483  -10.8043    3.8537 H   0  0  0  0  0  0  0  0  0  0  0  0
   17.8026   -8.3094    1.2922 H   0  0  0  0  0  0  0  0  0  0  0  0
   19.8020   -8.6771    2.9671 H   0  0  0  0  0  0  0  0  0  0  0  0
   19.7155  -11.0516    3.0005 H   0  0  0  0  0  0  0  0  0  0  0  0
   19.2078  -10.9809    0.1488 H   0  0  0  0  0  0  0  0  0  0  0  0
   18.1421  -12.7949    2.0691 H   0  0  0  0  0  0  0  0  0  0  0  0
   19.3669  -13.1151    1.0454 H   0  0  0  0  0  0  0  0  0  0  0  0
   17.3619  -12.1248   -0.3697 H   0  0  0  0  0  0  0  0  0  0  0  0
   24.1010   -9.8894    1.4362 H   0  0  0  0  0  0  0  0  0  0  0  0
   24.2047   -8.1714    2.6192 H   0  0  0  0  0  0  0  0  0  0  0  0
   23.3605   -8.0418    4.0052 H   0  0  0  0  0  0  0  0  0  0  0  0
   23.0257   -6.3561    1.7088 H   0  0  0  0  0  0  0  0  0  0  0  0
   25.0274   -5.8333    3.2521 H   0  0  0  0  0  0  0  0  0  0  0  0
   23.6808   -3.5518    3.0749 H   0  0  0  0  0  0  0  0  0  0  0  0
   23.8559   -5.9349    5.3331 H   0  0  0  0  0  0  0  0  0  0  0  0
   23.3082   -3.4049    5.3522 H   0  0  0  0  0  0  0  0  0  0  0  0
   21.7828   -4.2637    4.2736 H   0  0  0  0  0  0  0  0  0  0  0  0
   19.0748   -8.0216    8.9567 H   0  0  0  0  0  0  0  0  0  0  0  0
   18.8783   -6.4074    9.5534 H   0  0  0  0  0  0  0  0  0  0  0  0
   20.2790   -8.5106    6.8718 H   0  0  0  0  0  0  0  0  0  0  0  0
   21.4603   -7.6429    5.0493 H   0  0  0  0  0  0  0  0  0  0  0  0
  1  7  1  0  0  0  0
  1  2  1  0  0  0  0
  1 41  1  0  0  0  0
  2  4  2  0  0  0  0
  2  3  1  0  0  0  0
  3 42  1  0  0  0  0
  3 43  1  0  0  0  0
  4  5  1  0  0  0  0
  5 11  1  0  0  0  0
  5  6  2  0  0  0  0
  6  9  1  0  0  0  0
  6  7  1  0  0  0  0
  7  8  2  0  0  0  0
  9 10  2  0  0  0  0
 10 11  1  0  0  0  0
 10 44  1  0  0  0  0
 11 12  1  0  0  0  0
 12 18  1  0  0  0  0
 12 13  1  0  0  0  0
 12 45  1  0  0  0  0
 13 15  1  0  0  0  0
 13 14  1  0  0  0  0
 13 46  1  0  0  0  0
 15 17  1  0  0  0  0
 15 16  1  0  0  0  0
 15 47  1  0  0  0  0
 16 21  1  0  0  0  0
 17 19  1  0  0  0  0
 17 18  1  0  0  0  0
 17 48  1  0  0  0  0
 19 20  1  0  0  0  0
 19 49  1  0  0  0  0
 19 50  1  0  0  0  0
 20 51  1  0  0  0  0
 21 24  1  0  0  0  0
 21 23  1  0  0  0  0
 21 22  2  0  0  0  0
 23 52  1  0  0  0  0
 24 25  1  0  0  0  0
 25 26  1  0  0  0  0
 25 53  1  0  0  0  0
 25 54  1  0  0  0  0
 26 28  1  0  0  0  0
 26 27  1  0  0  0  0
 26 55  1  0  0  0  0
 27 32  1  0  0  0  0
 28 30  1  0  0  0  0
 28 29  1  0  0  0  0
 28 56  1  0  0  0  0
 29 57  1  0  0  0  0
 30 32  1  0  0  0  0
 30 31  1  0  0  0  0
 30 58  1  0  0  0  0
 31 59  1  0  0  0  0
 32 33  1  0  0  0  0
 32 60  1  0  0  0  0
 33 40  1  0  0  0  0
 33 34  1  0  0  0  0
 34 36  1  0  0  0  0
 34 35  2  0  0  0  0
 36 37  2  0  0  0  0
 37 39  1  0  0  0  0
 37 38  1  0  0  0  0
 38 61  1  0  0  0  0
 38 62  1  0  0  0  0
 39 40  2  0  0  0  0
 39 63  1  0  0  0  0
 40 64  1  0  0  0  0
M  END
