ZINC03815213
  -OEChem-08230709403D

 36 39  0     0  0  0  0  0  0999 V2000
    0.7503    2.6595   -2.2976 C   0  0  0  0  0  0  0  0  0  0  0  0
    0.2968    3.8704   -1.8140 C   0  0  0  0  0  0  0  0  0  0  0  0
    0.3353    4.1324   -0.4453 C   0  0  0  0  0  0  0  0  0  0  0  0
    0.8274    3.1673    0.4309 C   0  0  0  0  0  0  0  0  0  0  0  0
    1.2754    1.9534   -0.0627 C   0  0  0  0  0  0  0  0  0  0  0  0
    1.2335    1.7005   -1.4273 C   0  0  0  0  0  0  0  0  0  0  0  0
    1.7556    1.0093    0.7887 O   0  0  0  0  0  0  0  0  0  0  0  0
   -0.1463    5.4340    0.0764 C   0  0  0  0  0  0  0  0  0  0  0  0
   -1.3840    6.1147   -0.3029 C   0  0  0  0  0  0  0  0  0  0  0  0
   -1.4257    7.3092    0.4407 C   0  0  0  0  0  0  0  0  0  0  0  0
   -0.2978    7.3387    1.2058 N   0  0  0  0  0  0  0  0  0  0  0  0
   -0.0483    8.0714    1.8390 H   0  0  0  0  0  0  0  0  0  0  0  0
    0.4564    6.1849    0.9676 N   0  0  0  0  0  0  0  0  0  0  0  0
   -2.4666    8.1257    0.2798 N   0  0  0  0  0  0  0  0  0  0  0  0
   -3.4350    7.8218   -0.5564 C   0  0  0  0  0  0  0  0  0  0  0  0
   -3.4367    6.7125   -1.2737 N   0  0  0  0  0  0  0  0  0  0  0  0
   -2.4421    5.8347   -1.1830 C   0  0  0  0  0  0  0  0  0  0  0  0
   -2.4491    4.6756   -1.9366 N   0  0  0  0  0  0  0  0  0  0  0  0
   -3.4446    4.4720   -2.8965 C   0  0  0  0  0  0  0  0  0  0  0  0
   -3.9019    3.1875   -3.1635 C   0  0  0  0  0  0  0  0  0  0  0  0
   -4.8858    2.9892   -4.1119 C   0  0  0  0  0  0  0  0  0  0  0  0
   -5.4164    4.0673   -4.7963 C   0  0  0  0  0  0  0  0  0  0  0  0
   -4.9639    5.3483   -4.5329 C   0  0  0  0  0  0  0  0  0  0  0  0
   -3.9825    5.5538   -3.5811 C   0  0  0  0  0  0  0  0  0  0  0  0
   -5.6337    6.6989   -5.3936 Cl  0  0  0  0  0  0  0  0  0  0  0  0
    0.7241    2.4595   -3.3586 H   0  0  0  0  0  0  0  0  0  0  0  0
   -0.0843    4.6159   -2.4962 H   0  0  0  0  0  0  0  0  0  0  0  0
    0.8598    3.3654    1.4921 H   0  0  0  0  0  0  0  0  0  0  0  0
    1.5836    0.7534   -1.8103 H   0  0  0  0  0  0  0  0  0  0  0  0
    2.7074    1.0710    0.9481 H   0  0  0  0  0  0  0  0  0  0  0  0
   -4.2631    8.5071   -0.6608 H   0  0  0  0  0  0  0  0  0  0  0  0
   -1.7632    4.0036   -1.7992 H   0  0  0  0  0  0  0  0  0  0  0  0
   -3.4880    2.3447   -2.6299 H   0  0  0  0  0  0  0  0  0  0  0  0
   -5.2416    1.9908   -4.3192 H   0  0  0  0  0  0  0  0  0  0  0  0
   -6.1858    3.9094   -5.5375 H   0  0  0  0  0  0  0  0  0  0  0  0
   -3.6321    6.5539   -3.3730 H   0  0  0  0  0  0  0  0  0  0  0  0
  1  6  2  0  0  0  0
  1  2  1  0  0  0  0
  1 26  1  0  0  0  0
  2  3  2  0  0  0  0
  2 27  1  0  0  0  0
  3  4  1  0  0  0  0
  3  8  1  0  0  0  0
  4  5  2  0  0  0  0
  4 28  1  0  0  0  0
  5  6  1  0  0  0  0
  5  7  1  0  0  0  0
  6 29  1  0  0  0  0
  7 30  1  0  0  0  0
  8 13  2  0  0  0  0
  8  9  1  0  0  0  0
  9 17  2  0  0  0  0
  9 10  1  0  0  0  0
 10 11  1  0  0  0  0
 10 14  2  0  0  0  0
 11 12  1  0  0  0  0
 11 13  1  0  0  0  0
 14 15  1  0  0  0  0
 15 16  2  0  0  0  0
 15 31  1  0  0  0  0
 16 17  1  0  0  0  0
 17 18  1  0  0  0  0
 18 19  1  0  0  0  0
 18 32  1  0  0  0  0
 19 24  2  0  0  0  0
 19 20  1  0  0  0  0
 20 21  2  0  0  0  0
 20 33  1  0  0  0  0
 21 22  1  0  0  0  0
 21 34  1  0  0  0  0
 22 23  2  0  0  0  0
 22 35  1  0  0  0  0
 23 24  1  0  0  0  0
 23 25  1  0  0  0  0
 24 36  1  0  0  0  0
M  END
$$$$
