ZINC03832351
  -OEChem-08230709403D

 55 59  0     0  0  0  0  0  0999 V2000
   -3.0546   -1.5784   -4.6985 C   0  0  0  0  0  0  0  0  0  0  0  0
   -3.7329   -1.0206   -5.8711 N   0  0  0  0  0  0  0  0  0  0  0  0
   -3.8525    0.3435   -6.0057 C   0  0  0  0  0  0  0  0  0  0  0  0
   -3.3391    1.2065   -5.0449 C   0  0  0  0  0  0  0  0  0  0  0  0
   -3.4856    2.5747   -5.2259 C   0  0  0  0  0  0  0  0  0  0  0  0
   -4.1085    3.0670   -6.2918 N   0  0  0  0  0  0  0  0  0  0  0  0
   -4.6067    2.2938   -7.2315 C   0  0  0  0  0  0  0  0  0  0  0  0
   -4.5032    0.9010   -7.1282 C   0  0  0  0  0  0  0  0  0  0  0  0
   -5.0383    0.0535   -8.1269 C   0  0  0  0  0  0  0  0  0  0  0  0
   -4.9153   -1.3021   -7.9858 C   0  0  0  0  0  0  0  0  0  0  0  0
   -4.2351   -1.8476   -6.8090 C   0  0  0  0  0  0  0  0  0  0  0  0
   -4.1225   -3.0534   -6.6778 O   0  0  0  0  0  0  0  0  0  0  0  0
   -5.4671   -2.2120   -9.0166 C   0  0  0  0  0  0  0  0  0  0  0  0
   -6.7772   -2.6804   -8.9090 C   0  0  0  0  0  0  0  0  0  0  0  0
   -7.2870   -3.5246   -9.8759 C   0  0  0  0  0  0  0  0  0  0  0  0
   -6.4986   -3.9144  -10.9436 C   0  0  0  0  0  0  0  0  0  0  0  0
   -5.1974   -3.4579  -11.0534 C   0  0  0  0  0  0  0  0  0  0  0  0
   -4.6771   -2.6091  -10.0962 C   0  0  0  0  0  0  0  0  0  0  0  0
   -3.0437   -2.0378  -10.2355 Cl  0  0  0  0  0  0  0  0  0  0  0  0
   -7.7661   -2.1977   -7.5663 Cl  0  0  0  0  0  0  0  0  0  0  0  0
   -2.9768    3.4454   -4.2728 N   0  0  0  0  0  0  0  0  0  0  0  0
   -2.4761    2.9457   -3.0643 C   0  0  0  0  0  0  0  0  0  0  0  0
   -1.2944    3.4527   -2.5397 C   0  0  0  0  0  0  0  0  0  0  0  0
   -0.8009    2.9604   -1.3478 C   0  0  0  0  0  0  0  0  0  0  0  0
   -1.4863    1.9581   -0.6737 C   0  0  0  0  0  0  0  0  0  0  0  0
   -2.6650    1.4471   -1.2012 C   0  0  0  0  0  0  0  0  0  0  0  0
   -3.1614    1.9435   -2.3902 C   0  0  0  0  0  0  0  0  0  0  0  0
   -0.9861    1.4590    0.5343 N   0  0  0  0  0  0  0  0  0  0  0  0
    0.3858    0.9572    0.3693 C   0  0  0  0  0  0  0  0  0  0  0  0
    0.9142    0.4771    1.7237 C   0  0  0  0  0  0  0  0  0  0  0  0
    0.0324   -0.5196    2.2476 O   0  0  0  0  0  0  0  0  0  0  0  0
   -1.3122   -0.0646    2.4217 C   0  0  0  0  0  0  0  0  0  0  0  0
   -1.8631    0.4100    1.0744 C   0  0  0  0  0  0  0  0  0  0  0  0
   -3.7815   -1.7455   -3.9036 H   0  0  0  0  0  0  0  0  0  0  0  0
   -2.5852   -2.5249   -4.9664 H   0  0  0  0  0  0  0  0  0  0  0  0
   -2.2926   -0.8798   -4.3530 H   0  0  0  0  0  0  0  0  0  0  0  0
   -2.8344    0.8191   -4.1722 H   0  0  0  0  0  0  0  0  0  0  0  0
   -5.1015    2.7346   -8.0843 H   0  0  0  0  0  0  0  0  0  0  0  0
   -5.5376    0.4709   -8.9889 H   0  0  0  0  0  0  0  0  0  0  0  0
   -8.3023   -3.8843   -9.7962 H   0  0  0  0  0  0  0  0  0  0  0  0
   -6.9006   -4.5783  -11.6946 H   0  0  0  0  0  0  0  0  0  0  0  0
   -4.5872   -3.7657  -11.8896 H   0  0  0  0  0  0  0  0  0  0  0  0
   -2.9679    4.4002   -4.4437 H   0  0  0  0  0  0  0  0  0  0  0  0
   -0.7616    4.2324   -3.0637 H   0  0  0  0  0  0  0  0  0  0  0  0
    0.1178    3.3549   -0.9397 H   0  0  0  0  0  0  0  0  0  0  0  0
   -3.1955    0.6644   -0.6794 H   0  0  0  0  0  0  0  0  0  0  0  0
   -4.0806    1.5494   -2.7980 H   0  0  0  0  0  0  0  0  0  0  0  0
    0.3872    0.1269   -0.3370 H   0  0  0  0  0  0  0  0  0  0  0  0
    1.0232    1.7572   -0.0072 H   0  0  0  0  0  0  0  0  0  0  0  0
    0.9633    1.3189    2.4143 H   0  0  0  0  0  0  0  0  0  0  0  0
    1.9097    0.0518    1.5967 H   0  0  0  0  0  0  0  0  0  0  0  0
   -1.3278    0.7614    3.1326 H   0  0  0  0  0  0  0  0  0  0  0  0
   -1.9275   -0.8813    2.7991 H   0  0  0  0  0  0  0  0  0  0  0  0
   -2.8674    0.8106    1.2126 H   0  0  0  0  0  0  0  0  0  0  0  0
   -1.8983   -0.4287    0.3790 H   0  0  0  0  0  0  0  0  0  0  0  0
  1  2  1  0  0  0  0
  1 34  1  0  0  0  0
  1 35  1  0  0  0  0
  1 36  1  0  0  0  0
  2 11  1  0  0  0  0
  2  3  1  0  0  0  0
  3  8  2  0  0  0  0
  3  4  1  0  0  0  0
  4  5  2  0  0  0  0
  4 37  1  0  0  0  0
  5  6  1  0  0  0  0
  5 21  1  0  0  0  0
  6  7  2  0  0  0  0
  7  8  1  0  0  0  0
  7 38  1  0  0  0  0
  8  9  1  0  0  0  0
  9 10  2  0  0  0  0
  9 39  1  0  0  0  0
 10 11  1  0  0  0  0
 10 13  1  0  0  0  0
 11 12  2  0  0  0  0
 13 18  2  0  0  0  0
 13 14  1  0  0  0  0
 14 15  2  0  0  0  0
 14 20  1  0  0  0  0
 15 16  1  0  0  0  0
 15 40  1  0  0  0  0
 16 17  2  0  0  0  0
 16 41  1  0  0  0  0
 17 18  1  0  0  0  0
 17 42  1  0  0  0  0
 18 19  1  0  0  0  0
 21 22  1  0  0  0  0
 21 43  1  0  0  0  0
 22 27  2  0  0  0  0
 22 23  1  0  0  0  0
 23 24  2  0  0  0  0
 23 44  1  0  0  0  0
 24 25  1  0  0  0  0
 24 45  1  0  0  0  0
 25 26  2  0  0  0  0
 25 28  1  0  0  0  0
 26 27  1  0  0  0  0
 26 46  1  0  0  0  0
 27 47  1  0  0  0  0
 28 33  1  0  0  0  0
 28 29  1  0  0  0  0
 29 30  1  0  0  0  0
 29 48  1  0  0  0  0
 29 49  1  0  0  0  0
 30 31  1  0  0  0  0
 30 50  1  0  0  0  0
 30 51  1  0  0  0  0
 31 32  1  0  0  0  0
 32 33  1  0  0  0  0
 32 52  1  0  0  0  0
 32 53  1  0  0  0  0
 33 54  1  0  0  0  0
 33 55  1  0  0  0  0
M  END
$$$$
