ZINC03834089
  -OEChem-08230709403D

 31 33  0     0  0  0  0  0  0999 V2000
   -1.2609   -0.7464    0.0101 C   0  0  0  0  0  0  0  0  0  0  0  0
    0.0021   -0.0041    0.0020 N   0  0  0  0  0  0  0  0  0  0  0  0
   -0.0165    1.3678    0.0096 C   0  0  0  0  0  0  0  0  0  0  0  0
    1.1915    2.0982    0.0020 C   0  0  0  0  0  0  0  0  0  0  0  0
    2.4322    1.4209   -0.0130 C   0  0  0  0  0  0  0  0  0  0  0  0
    2.4409    0.0518   -0.0200 C   0  0  0  0  0  0  0  0  0  0  0  0
    1.1697   -0.6753   -0.0123 C   0  0  0  0  0  0  0  0  0  0  0  0
    1.1684   -1.8934   -0.0184 O   0  0  0  0  0  0  0  0  0  0  0  0
    3.7248   -0.6874   -0.0357 C   0  0  0  0  0  0  0  0  0  0  0  0
    4.3181   -1.0356   -1.2497 C   0  0  0  0  0  0  0  0  0  0  0  0
    5.5177   -1.7201   -1.2573 C   0  0  0  0  0  0  0  0  0  0  0  0
    6.1256   -2.0697   -0.0650 C   0  0  0  0  0  0  0  0  0  0  0  0
    5.5398   -1.7326    1.1419 C   0  0  0  0  0  0  0  0  0  0  0  0
    4.3430   -1.0435    1.1636 C   0  0  0  0  0  0  0  0  0  0  0  0
    3.6092   -0.6219    2.6793 Cl  0  0  0  0  0  0  0  0  0  0  0  0
    3.5533   -0.6040   -2.7472 Cl  0  0  0  0  0  0  0  0  0  0  0  0
    1.1283    3.4996    0.0101 C   0  0  0  0  0  0  0  0  0  0  0  0
   -0.0579    4.0785    0.0245 N   0  0  0  0  0  0  0  0  0  0  0  0
   -1.1744    3.3587    0.0314 C   0  0  0  0  0  0  0  0  0  0  0  0
   -1.1653    2.0347    0.0186 N   0  0  0  0  0  0  0  0  0  0  0  0
   -2.3888    4.0153    0.0465 N   0  0  0  0  0  0  0  0  0  0  0  0
   -1.5840   -0.9249   -1.0155 H   0  0  0  0  0  0  0  0  0  0  0  0
   -1.1184   -1.7005    0.5174 H   0  0  0  0  0  0  0  0  0  0  0  0
   -2.0201   -0.1660    0.5343 H   0  0  0  0  0  0  0  0  0  0  0  0
    3.3593    1.9750   -0.0181 H   0  0  0  0  0  0  0  0  0  0  0  0
    5.9803   -1.9862   -2.1963 H   0  0  0  0  0  0  0  0  0  0  0  0
    7.0615   -2.6085   -0.0764 H   0  0  0  0  0  0  0  0  0  0  0  0
    6.0192   -2.0091    2.0694 H   0  0  0  0  0  0  0  0  0  0  0  0
    2.0311    4.0923    0.0043 H   0  0  0  0  0  0  0  0  0  0  0  0
   -2.4159    4.9849    0.0520 H   0  0  0  0  0  0  0  0  0  0  0  0
   -3.2149    3.5070    0.0517 H   0  0  0  0  0  0  0  0  0  0  0  0
  1  2  1  0  0  0  0
  1 22  1  0  0  0  0
  1 23  1  0  0  0  0
  1 24  1  0  0  0  0
  2  7  1  0  0  0  0
  2  3  1  0  0  0  0
  3 20  2  0  0  0  0
  3  4  1  0  0  0  0
  4  5  1  0  0  0  0
  4 17  2  0  0  0  0
  5  6  2  0  0  0  0
  5 25  1  0  0  0  0
  6  7  1  0  0  0  0
  6  9  1  0  0  0  0
  7  8  2  0  0  0  0
  9 14  2  0  0  0  0
  9 10  1  0  0  0  0
 10 11  2  0  0  0  0
 10 16  1  0  0  0  0
 11 12  1  0  0  0  0
 11 26  1  0  0  0  0
 12 13  2  0  0  0  0
 12 27  1  0  0  0  0
 13 14  1  0  0  0  0
 13 28  1  0  0  0  0
 14 15  1  0  0  0  0
 17 18  1  0  0  0  0
 17 29  1  0  0  0  0
 18 19  2  0  0  0  0
 19 20  1  0  0  0  0
 19 21  1  0  0  0  0
 21 30  1  0  0  0  0
 21 31  1  0  0  0  0
M  END
$$$$
