ZINC01916192
  -OEChem-08230709403D

 52 56  0     0  0  0  0  0  0999 V2000
   -5.5602    7.2579    4.9920 C   0  0  0  0  0  0  0  0  0  0  0  0
   -5.5965    6.9599    3.6426 C   0  0  0  0  0  0  0  0  0  0  0  0
   -5.6367    5.6423    3.2265 C   0  0  0  0  0  0  0  0  0  0  0  0
   -5.6411    4.6226    4.1599 C   0  0  0  0  0  0  0  0  0  0  0  0
   -5.6105    4.9207    5.5094 C   0  0  0  0  0  0  0  0  0  0  0  0
   -5.5650    6.2382    5.9253 C   0  0  0  0  0  0  0  0  0  0  0  0
   -5.6929    2.9431    3.6296 S   0  0  0  0  0  0  0  0  0  0  0  0
   -6.2720    2.9446    2.3320 O   0  0  0  0  0  0  0  0  0  0  0  0
   -6.2387    2.1938    4.7066 O   0  0  0  0  0  0  0  0  0  0  0  0
   -4.0258    2.4061    3.4365 C   0  0  0  0  0  0  0  0  0  0  0  0
   -3.3559    1.8346    4.5021 C   0  0  0  0  0  0  0  0  0  0  0  0
   -2.0481    1.4134    4.3506 C   0  0  0  0  0  0  0  0  0  0  0  0
   -1.4104    1.5628    3.1332 C   0  0  0  0  0  0  0  0  0  0  0  0
   -2.0788    2.1386    2.0690 C   0  0  0  0  0  0  0  0  0  0  0  0
   -3.3880    2.5560    2.2193 C   0  0  0  0  0  0  0  0  0  0  0  0
    0.0153    1.1034    2.9681 C   0  0  0  0  0  0  0  0  0  0  0  0
    0.0304   -0.2936    2.5272 N   0  0  0  0  0  0  0  0  0  0  0  0
    0.0531   -1.3915    3.3722 C   0  0  0  0  0  0  0  0  0  0  0  0
    0.0684   -1.5024    4.7593 C   0  0  0  0  0  0  0  0  0  0  0  0
    0.0912   -2.7496    5.3539 C   0  0  0  0  0  0  0  0  0  0  0  0
    0.0994   -3.9047    4.5717 C   0  0  0  0  0  0  0  0  0  0  0  0
    0.0843   -3.8083    3.1944 C   0  0  0  0  0  0  0  0  0  0  0  0
    0.0609   -2.5532    2.5874 C   0  0  0  0  0  0  0  0  0  0  0  0
    0.0414   -2.1100    1.1807 C   0  0  0  0  0  0  0  0  0  0  0  0
    0.0231   -0.7081    1.2046 C   0  0  0  0  0  0  0  0  0  0  0  0
    0.0021   -0.0041    0.0020 C   0  0  0  0  0  0  0  0  0  0  0  0
   -0.0058   -0.6919   -1.2024 C   0  0  0  0  0  0  0  0  0  0  0  0
    0.0170   -2.0814   -1.2188 C   0  0  0  0  0  0  0  0  0  0  0  0
    0.0382   -2.7892   -0.0364 C   0  0  0  0  0  0  0  0  0  0  0  0
   -0.0315   -0.0023   -2.3745 O   0  0  0  0  0  0  0  0  0  0  0  0
   -0.0164    1.3567    0.0095 O   0  0  0  0  0  0  0  0  0  0  0  0
    0.1218   -5.1281    5.1669 O   0  0  0  0  0  0  0  0  0  0  0  0
    0.1061   -2.8515    6.7099 O   0  0  0  0  0  0  0  0  0  0  0  0
   -5.5284    8.2873    5.3170 H   0  0  0  0  0  0  0  0  0  0  0  0
   -5.5931    7.7566    2.9134 H   0  0  0  0  0  0  0  0  0  0  0  0
   -5.6651    5.4095    2.1723 H   0  0  0  0  0  0  0  0  0  0  0  0
   -5.6183    4.1242    6.2387 H   0  0  0  0  0  0  0  0  0  0  0  0
   -5.5370    6.4710    6.9796 H   0  0  0  0  0  0  0  0  0  0  0  0
   -3.8542    1.7176    5.4531 H   0  0  0  0  0  0  0  0  0  0  0  0
   -1.5246    0.9672    5.1832 H   0  0  0  0  0  0  0  0  0  0  0  0
   -1.5791    2.2594    1.1192 H   0  0  0  0  0  0  0  0  0  0  0  0
   -3.9115    3.0021    1.3866 H   0  0  0  0  0  0  0  0  0  0  0  0
    0.5374    1.1894    3.9210 H   0  0  0  0  0  0  0  0  0  0  0  0
    0.5133    1.7247    2.2236 H   0  0  0  0  0  0  0  0  0  0  0  0
    0.0622   -0.6128    5.3717 H   0  0  0  0  0  0  0  0  0  0  0  0
    0.0911   -4.7026    2.5889 H   0  0  0  0  0  0  0  0  0  0  0  0
    0.0142   -2.6085   -2.1614 H   0  0  0  0  0  0  0  0  0  0  0  0
    0.0521   -3.8689   -0.0529 H   0  0  0  0  0  0  0  0  0  0  0  0
    0.8443    0.2088   -2.7259 H   0  0  0  0  0  0  0  0  0  0  0  0
    0.8616    1.7620    0.0033 H   0  0  0  0  0  0  0  0  0  0  0  0
   -0.7550   -5.4938    5.3475 H   0  0  0  0  0  0  0  0  0  0  0  0
   -0.7729   -2.8929    7.1109 H   0  0  0  0  0  0  0  0  0  0  0  0
  1  6  2  0  0  0  0
  1  2  1  0  0  0  0
  1 34  1  0  0  0  0
  2  3  2  0  0  0  0
  2 35  1  0  0  0  0
  3  4  1  0  0  0  0
  3 36  1  0  0  0  0
  4  5  2  0  0  0  0
  4  7  1  0  0  0  0
  5  6  1  0  0  0  0
  5 37  1  0  0  0  0
  6 38  1  0  0  0  0
  7  8  2  0  0  0  0
  7  9  2  0  0  0  0
  7 10  1  0  0  0  0
 10 15  2  0  0  0  0
 10 11  1  0  0  0  0
 11 12  2  0  0  0  0
 11 39  1  0  0  0  0
 12 13  1  0  0  0  0
 12 40  1  0  0  0  0
 13 14  2  0  0  0  0
 13 16  1  0  0  0  0
 14 15  1  0  0  0  0
 14 41  1  0  0  0  0
 15 42  1  0  0  0  0
 16 17  1  0  0  0  0
 16 43  1  0  0  0  0
 16 44  1  0  0  0  0
 17 25  1  0  0  0  0
 17 18  1  0  0  0  0
 18 23  2  0  0  0  0
 18 19  1  0  0  0  0
 19 20  2  0  0  0  0
 19 45  1  0  0  0  0
 20 21  1  0  0  0  0
 20 33  1  0  0  0  0
 21 22  2  0  0  0  0
 21 32  1  0  0  0  0
 22 23  1  0  0  0  0
 22 46  1  0  0  0  0
 23 24  1  0  0  0  0
 24 29  2  0  0  0  0
 24 25  1  0  0  0  0
 25 26  2  0  0  0  0
 26 27  1  0  0  0  0
 26 31  1  0  0  0  0
 27 28  2  0  0  0  0
 27 30  1  0  0  0  0
 28 29  1  0  0  0  0
 28 47  1  0  0  0  0
 29 48  1  0  0  0  0
 30 49  1  0  0  0  0
 31 50  1  0  0  0  0
 32 51  1  0  0  0  0
 33 52  1  0  0  0  0
M  END
$$$$
