ZINC03815536
  -OEChem-08230709403D

 67 70  0     0  0  0  0  0  0999 V2000
    3.4622  -10.1764    0.4623 C   0  0  0  0  0  0  0  0  0  0  0  0
    3.0710   -8.7032    0.5943 C   0  0  0  0  0  0  0  0  0  0  0  0
    1.2360   -8.9043   -0.9724 C   0  0  0  0  0  0  0  0  0  0  0  0
    0.9393   -8.8001   -2.4698 C   0  0  0  0  0  0  0  0  0  0  0  0
    2.3399   -6.7709   -0.6684 C   0  0  0  0  0  0  0  0  0  0  0  0
    3.6996   -6.1003   -0.8747 C   0  0  0  0  0  0  0  0  0  0  0  0
    3.5304   -4.5803   -0.8314 C   0  0  0  0  0  0  0  0  0  0  0  0
    4.8003   -3.9540   -1.0242 O   0  0  0  0  0  0  0  0  0  0  0  0
    4.8261   -2.5944   -1.0133 C   0  0  0  0  0  0  0  0  0  0  0  0
    6.0260   -1.9224   -1.1945 C   0  0  0  0  0  0  0  0  0  0  0  0
    6.0532   -0.5418   -1.1832 C   0  0  0  0  0  0  0  0  0  0  0  0
    4.8787    0.1739   -0.9907 C   0  0  0  0  0  0  0  0  0  0  0  0
    3.6786   -0.4998   -0.8041 C   0  0  0  0  0  0  0  0  0  0  0  0
    3.6525   -1.8803   -0.8205 C   0  0  0  0  0  0  0  0  0  0  0  0
    4.9053    1.5734   -0.9791 N   0  0  0  0  0  0  0  0  0  0  0  0
    5.7426    2.2586   -1.8479 C   0  0  0  0  0  0  0  0  0  0  0  0
    5.8502    3.6387   -1.7428 C   0  0  0  0  0  0  0  0  0  0  0  0
    6.6915    4.3148   -2.6179 C   0  0  0  0  0  0  0  0  0  0  0  0
    7.4024    3.5631   -3.5795 C   0  0  0  0  0  0  0  0  0  0  0  0
    8.2688    4.2171   -4.4871 C   0  0  0  0  0  0  0  0  0  0  0  0
    8.4036    5.5770   -4.4166 C   0  0  0  0  0  0  0  0  0  0  0  0
    7.6463    6.3273   -3.4121 C   0  0  0  0  0  0  0  0  0  0  0  0
    7.7575    7.5387   -3.3484 O   0  0  0  0  0  0  0  0  0  0  0  0
    6.8319    5.6821   -2.5541 N   0  0  0  0  0  0  0  0  0  0  0  0
    6.0855    6.4432   -1.5491 C   0  0  0  0  0  0  0  0  0  0  0  0
    9.3037    6.2867   -5.3552 C   0  0  0  0  0  0  0  0  0  0  0  0
   10.6418    6.4965   -5.0194 C   0  0  0  0  0  0  0  0  0  0  0  0
   11.4772    7.1533   -5.9017 C   0  0  0  0  0  0  0  0  0  0  0  0
   10.9871    7.6133   -7.1107 C   0  0  0  0  0  0  0  0  0  0  0  0
    9.6602    7.4140   -7.4470 C   0  0  0  0  0  0  0  0  0  0  0  0
    8.8157    6.7533   -6.5764 C   0  0  0  0  0  0  0  0  0  0  0  0
    7.1508    6.5042   -7.0004 Cl  0  0  0  0  0  0  0  0  0  0  0  0
   11.2569    5.9267   -3.4993 Cl  0  0  0  0  0  0  0  0  0  0  0  0
    7.2342    2.1736   -3.6158 C   0  0  0  0  0  0  0  0  0  0  0  0
    6.4253    1.5812   -2.7647 N   0  0  0  0  0  0  0  0  0  0  0  0
    3.8804  -10.5273    1.4057 H   0  0  0  0  0  0  0  0  0  0  0  0
    2.5794  -10.7659    0.2146 H   0  0  0  0  0  0  0  0  0  0  0  0
    4.2054  -10.2856   -0.3276 H   0  0  0  0  0  0  0  0  0  0  0  0
    3.9538   -8.1137    0.8420 H   0  0  0  0  0  0  0  0  0  0  0  0
    2.3278   -8.5940    1.3842 H   0  0  0  0  0  0  0  0  0  0  0  0
    1.3068   -9.9542   -0.6883 H   0  0  0  0  0  0  0  0  0  0  0  0
    0.4332   -8.4287   -0.4090 H   0  0  0  0  0  0  0  0  0  0  0  0
    0.9411   -7.7518   -2.7684 H   0  0  0  0  0  0  0  0  0  0  0  0
    1.7034   -9.3389   -3.0300 H   0  0  0  0  0  0  0  0  0  0  0  0
   -0.0382   -9.2354   -2.6776 H   0  0  0  0  0  0  0  0  0  0  0  0
    1.9225   -6.4588    0.2889 H   0  0  0  0  0  0  0  0  0  0  0  0
    1.6646   -6.4778   -1.4722 H   0  0  0  0  0  0  0  0  0  0  0  0
    4.1060   -6.3932   -1.8428 H   0  0  0  0  0  0  0  0  0  0  0  0
    4.3824   -6.4125   -0.0845 H   0  0  0  0  0  0  0  0  0  0  0  0
    3.1240   -4.2874    0.1366 H   0  0  0  0  0  0  0  0  0  0  0  0
    2.8476   -4.2681   -1.6216 H   0  0  0  0  0  0  0  0  0  0  0  0
    6.9392   -2.4791   -1.3442 H   0  0  0  0  0  0  0  0  0  0  0  0
    6.9875   -0.0188   -1.3243 H   0  0  0  0  0  0  0  0  0  0  0  0
    2.7655    0.0560   -0.6499 H   0  0  0  0  0  0  0  0  0  0  0  0
    2.7188   -2.4043   -0.6791 H   0  0  0  0  0  0  0  0  0  0  0  0
    4.3385    2.0642   -0.3637 H   0  0  0  0  0  0  0  0  0  0  0  0
    5.2898    4.1777   -0.9932 H   0  0  0  0  0  0  0  0  0  0  0  0
    8.8166    3.6505   -5.2255 H   0  0  0  0  0  0  0  0  0  0  0  0
    6.6786    6.5211   -0.6379 H   0  0  0  0  0  0  0  0  0  0  0  0
    5.8750    7.4417   -1.9321 H   0  0  0  0  0  0  0  0  0  0  0  0
    5.1477    5.9330   -1.3296 H   0  0  0  0  0  0  0  0  0  0  0  0
   12.5142    7.3121   -5.6451 H   0  0  0  0  0  0  0  0  0  0  0  0
   11.6433    8.1306   -7.7950 H   0  0  0  0  0  0  0  0  0  0  0  0
    9.2838    7.7757   -8.3925 H   0  0  0  0  0  0  0  0  0  0  0  0
    7.7707    1.5859   -4.3460 H   0  0  0  0  0  0  0  0  0  0  0  0
    2.5259   -8.2369   -0.6980 N   0  3  0  0  0  0  0  0  0  0  0  0
    3.1895   -8.4739   -1.4448 H   0  0  0  0  0  0  0  0  0  0  0  0
  1  2  1  0  0  0  0
  1 36  1  0  0  0  0
  1 37  1  0  0  0  0
  1 38  1  0  0  0  0
  2 39  1  0  0  0  0
  2 40  1  0  0  0  0
  2 66  1  0  0  0  0
  3  4  1  0  0  0  0
  3 41  1  0  0  0  0
  3 42  1  0  0  0  0
  3 66  1  0  0  0  0
  4 43  1  0  0  0  0
  4 44  1  0  0  0  0
  4 45  1  0  0  0  0
  5  6  1  0  0  0  0
  5 46  1  0  0  0  0
  5 47  1  0  0  0  0
  5 66  1  0  0  0  0
  6  7  1  0  0  0  0
  6 48  1  0  0  0  0
  6 49  1  0  0  0  0
  7  8  1  0  0  0  0
  7 50  1  0  0  0  0
  7 51  1  0  0  0  0
  8  9  1  0  0  0  0
  9 14  2  0  0  0  0
  9 10  1  0  0  0  0
 10 11  2  0  0  0  0
 10 52  1  0  0  0  0
 11 12  1  0  0  0  0
 11 53  1  0  0  0  0
 12 13  2  0  0  0  0
 12 15  1  0  0  0  0
 13 14  1  0  0  0  0
 13 54  1  0  0  0  0
 14 55  1  0  0  0  0
 15 16  1  0  0  0  0
 15 56  1  0  0  0  0
 16 35  2  0  0  0  0
 16 17  1  0  0  0  0
 17 18  2  0  0  0  0
 17 57  1  0  0  0  0
 18 24  1  0  0  0  0
 18 19  1  0  0  0  0
 19 20  1  0  0  0  0
 19 34  2  0  0  0  0
 20 21  2  0  0  0  0
 20 58  1  0  0  0  0
 21 22  1  0  0  0  0
 21 26  1  0  0  0  0
 22 23  2  0  0  0  0
 22 24  1  0  0  0  0
 24 25  1  0  0  0  0
 25 59  1  0  0  0  0
 25 60  1  0  0  0  0
 25 61  1  0  0  0  0
 26 31  2  0  0  0  0
 26 27  1  0  0  0  0
 27 28  2  0  0  0  0
 27 33  1  0  0  0  0
 28 29  1  0  0  0  0
 28 62  1  0  0  0  0
 29 30  2  0  0  0  0
 29 63  1  0  0  0  0
 30 31  1  0  0  0  0
 30 64  1  0  0  0  0
 31 32  1  0  0  0  0
 34 35  1  0  0  0  0
 34 65  1  0  0  0  0
 66 67  1  0  0  0  0
M  CHG  1  66   1
M  END
$$$$
