ZINC03815488
  -OEChem-08230709403D

 63 66  0     0  0  0  0  0  0999 V2000
    1.4887    2.0457    2.9267 C   0  0  0  0  0  0  0  0  0  0  0  0
    0.1005    1.4243    2.7597 C   0  0  0  0  0  0  0  0  0  0  0  0
   -0.5898    3.1680    1.2281 C   0  0  0  0  0  0  0  0  0  0  0  0
   -1.7843    3.6452    2.0567 C   0  0  0  0  0  0  0  0  0  0  0  0
    0.4705    1.1628    0.3811 C   0  0  0  0  0  0  0  0  0  0  0  0
    0.4361   -0.3651    0.4536 C   0  0  0  0  0  0  0  0  0  0  0  0
   -0.8750   -0.8282    0.1240 O   0  0  0  0  0  0  0  0  0  0  0  0
   -1.0772   -2.1720    0.1412 C   0  0  0  0  0  0  0  0  0  0  0  0
   -0.0325   -3.0273    0.4635 C   0  0  0  0  0  0  0  0  0  0  0  0
   -0.2376   -4.3936    0.4862 C   0  0  0  0  0  0  0  0  0  0  0  0
   -1.4800   -4.9135    0.1781 C   0  0  0  0  0  0  0  0  0  0  0  0
   -2.5279   -4.0626   -0.1503 C   0  0  0  0  0  0  0  0  0  0  0  0
   -2.3249   -2.6893   -0.1684 C   0  0  0  0  0  0  0  0  0  0  0  0
   -3.7850   -4.5884   -0.4625 N   0  0  0  0  0  0  0  0  0  0  0  0
   -3.8828   -5.7643   -1.1815 C   0  0  0  0  0  0  0  0  0  0  0  0
   -2.7732   -6.3146   -1.6626 N   0  0  0  0  0  0  0  0  0  0  0  0
   -2.8115   -7.4398   -2.3509 C   0  0  0  0  0  0  0  0  0  0  0  0
   -4.0566   -8.0459   -2.5785 C   0  0  0  0  0  0  0  0  0  0  0  0
   -4.1623   -9.2485   -3.3137 C   0  0  0  0  0  0  0  0  0  0  0  0
   -5.3999   -9.8006   -3.5087 C   0  0  0  0  0  0  0  0  0  0  0  0
   -6.5800   -9.1343   -2.9535 C   0  0  0  0  0  0  0  0  0  0  0  0
   -7.6849   -9.6187   -3.1219 O   0  0  0  0  0  0  0  0  0  0  0  0
   -6.4496   -7.9887   -2.2572 N   0  0  0  0  0  0  0  0  0  0  0  0
   -5.2134   -7.4284   -2.0564 C   0  0  0  0  0  0  0  0  0  0  0  0
   -5.0794   -6.2987   -1.3704 N   0  0  0  0  0  0  0  0  0  0  0  0
   -7.6400   -7.3344   -1.7083 C   0  0  0  0  0  0  0  0  0  0  0  0
   -5.5442  -11.0605   -4.2749 C   0  0  0  0  0  0  0  0  0  0  0  0
   -5.7399  -11.0222   -5.6560 C   0  0  0  0  0  0  0  0  0  0  0  0
   -5.8692  -12.2005   -6.3649 C   0  0  0  0  0  0  0  0  0  0  0  0
   -5.8148  -13.4163   -5.7074 C   0  0  0  0  0  0  0  0  0  0  0  0
   -5.6263  -13.4611   -4.3378 C   0  0  0  0  0  0  0  0  0  0  0  0
   -5.4907  -12.2903   -3.6177 C   0  0  0  0  0  0  0  0  0  0  0  0
   -5.2547  -12.3486   -1.8988 Cl  0  0  0  0  0  0  0  0  0  0  0  0
   -5.8150   -9.4972   -6.4820 Cl  0  0  0  0  0  0  0  0  0  0  0  0
    1.4066    3.1321    2.8955 H   0  0  0  0  0  0  0  0  0  0  0  0
    1.9105    1.7406    3.8843 H   0  0  0  0  0  0  0  0  0  0  0  0
    2.1379    1.7070    2.1193 H   0  0  0  0  0  0  0  0  0  0  0  0
   -0.5761    1.8407    3.5060 H   0  0  0  0  0  0  0  0  0  0  0  0
    0.1675    0.3445    2.8921 H   0  0  0  0  0  0  0  0  0  0  0  0
    0.3098    3.6906    1.5532 H   0  0  0  0  0  0  0  0  0  0  0  0
   -0.7715    3.3784    0.1742 H   0  0  0  0  0  0  0  0  0  0  0  0
   -2.6602    3.0449    1.8106 H   0  0  0  0  0  0  0  0  0  0  0  0
   -1.5568    3.5381    3.1173 H   0  0  0  0  0  0  0  0  0  0  0  0
   -1.9868    4.6925    1.8325 H   0  0  0  0  0  0  0  0  0  0  0  0
    1.4901    1.5114    0.5452 H   0  0  0  0  0  0  0  0  0  0  0  0
    0.1292    1.4877   -0.6017 H   0  0  0  0  0  0  0  0  0  0  0  0
    1.1558   -0.7787   -0.2528 H   0  0  0  0  0  0  0  0  0  0  0  0
    0.6918   -0.6868    1.4632 H   0  0  0  0  0  0  0  0  0  0  0  0
    0.9410   -2.6242    0.7008 H   0  0  0  0  0  0  0  0  0  0  0  0
    0.5760   -5.0566    0.7409 H   0  0  0  0  0  0  0  0  0  0  0  0
   -1.6367   -5.9819    0.1929 H   0  0  0  0  0  0  0  0  0  0  0  0
   -3.1377   -2.0256   -0.4237 H   0  0  0  0  0  0  0  0  0  0  0  0
   -4.5886   -4.1279   -0.1743 H   0  0  0  0  0  0  0  0  0  0  0  0
   -1.9043   -7.8827   -2.7346 H   0  0  0  0  0  0  0  0  0  0  0  0
   -3.2801   -9.7251   -3.7149 H   0  0  0  0  0  0  0  0  0  0  0  0
   -8.0388   -6.6323   -2.4404 H   0  0  0  0  0  0  0  0  0  0  0  0
   -8.3943   -8.0867   -1.4778 H   0  0  0  0  0  0  0  0  0  0  0  0
   -7.3724   -6.7976   -0.7982 H   0  0  0  0  0  0  0  0  0  0  0  0
   -6.0166  -12.1724   -7.4344 H   0  0  0  0  0  0  0  0  0  0  0  0
   -5.9203  -14.3347   -6.2659 H   0  0  0  0  0  0  0  0  0  0  0  0
   -5.5854  -14.4135   -3.8304 H   0  0  0  0  0  0  0  0  0  0  0  0
   -0.4363    1.7095    1.4124 N   0  3  0  0  0  0  0  0  0  0  0  0
   -1.3561    1.2629    1.3184 H   0  0  0  0  0  0  0  0  0  0  0  0
  1  2  1  0  0  0  0
  1 35  1  0  0  0  0
  1 36  1  0  0  0  0
  1 37  1  0  0  0  0
  2 38  1  0  0  0  0
  2 39  1  0  0  0  0
  2 62  1  0  0  0  0
  3  4  1  0  0  0  0
  3 40  1  0  0  0  0
  3 41  1  0  0  0  0
  3 62  1  0  0  0  0
  4 42  1  0  0  0  0
  4 43  1  0  0  0  0
  4 44  1  0  0  0  0
  5  6  1  0  0  0  0
  5 45  1  0  0  0  0
  5 46  1  0  0  0  0
  5 62  1  0  0  0  0
  6  7  1  0  0  0  0
  6 47  1  0  0  0  0
  6 48  1  0  0  0  0
  7  8  1  0  0  0  0
  8 13  2  0  0  0  0
  8  9  1  0  0  0  0
  9 10  2  0  0  0  0
  9 49  1  0  0  0  0
 10 11  1  0  0  0  0
 10 50  1  0  0  0  0
 11 12  2  0  0  0  0
 11 51  1  0  0  0  0
 12 13  1  0  0  0  0
 12 14  1  0  0  0  0
 13 52  1  0  0  0  0
 14 15  1  0  0  0  0
 14 53  1  0  0  0  0
 15 25  2  0  0  0  0
 15 16  1  0  0  0  0
 16 17  2  0  0  0  0
 17 18  1  0  0  0  0
 17 54  1  0  0  0  0
 18 24  2  0  0  0  0
 18 19  1  0  0  0  0
 19 20  2  0  0  0  0
 19 55  1  0  0  0  0
 20 21  1  0  0  0  0
 20 27  1  0  0  0  0
 21 22  2  0  0  0  0
 21 23  1  0  0  0  0
 23 24  1  0  0  0  0
 23 26  1  0  0  0  0
 24 25  1  0  0  0  0
 26 56  1  0  0  0  0
 26 57  1  0  0  0  0
 26 58  1  0  0  0  0
 27 32  2  0  0  0  0
 27 28  1  0  0  0  0
 28 29  2  0  0  0  0
 28 34  1  0  0  0  0
 29 30  1  0  0  0  0
 29 59  1  0  0  0  0
 30 31  2  0  0  0  0
 30 60  1  0  0  0  0
 31 32  1  0  0  0  0
 31 61  1  0  0  0  0
 32 33  1  0  0  0  0
 62 63  1  0  0  0  0
M  CHG  1  62   1
M  END
$$$$
