ZINC03834145
  -OEChem-08230709403D

 51 53  0     1  0  0  0  0  0999 V2000
    3.0154   13.4269   -1.0480 H   0  0  0  0  0  0  0  0  0  0  0  0
    0.9888   13.4520   -0.8554 C   0  0  0  0  0  0  0  0  0  0  0  0
   -0.2379   12.6972   -1.1996 C   0  0  0  0  0  0  0  0  0  0  0  0
   -1.4876   13.1746   -0.8051 C   0  0  0  0  0  0  0  0  0  0  0  0
   -2.6269   12.4672   -1.1291 C   0  0  0  0  0  0  0  0  0  0  0  0
   -2.5320   11.2892   -1.8487 C   0  0  0  0  0  0  0  0  0  0  0  0
   -1.2950   10.8078   -2.2378 C   0  0  0  0  0  0  0  0  0  0  0  0
   -0.1482   11.5065   -1.9197 C   0  0  0  0  0  0  0  0  0  0  0  0
   -1.1999    9.5207   -3.0160 C   0  0  0  0  0  0  0  0  0  0  0  0
   -1.0602    8.3467   -2.0450 C   0  0  1  0  0  0  0  0  0  0  0  0
   -1.8852    8.3640   -1.3328 H   0  0  0  0  0  0  0  0  0  0  0  0
   -1.0885    7.0516   -2.8150 C   0  0  0  0  0  0  0  0  0  0  0  0
   -0.1445    6.2990   -2.7664 O   0  0  0  0  0  0  0  0  0  0  0  0
   -2.1624    6.7343   -3.5551 O   0  0  0  0  0  0  0  0  0  0  0  0
   -2.1202    5.4713   -4.2702 C   0  0  0  0  0  0  0  0  0  0  0  0
    0.2100    8.4581   -1.3235 N   0  0  0  0  0  0  0  0  0  0  0  0
    0.3098    7.9743    0.2571 S   0  0  0  0  0  0  0  0  0  0  0  0
   -0.7879    8.5707    0.9344 O   0  0  0  0  0  0  0  0  0  0  0  0
    1.6567    8.1800    0.6605 O   0  0  0  0  0  0  0  0  0  0  0  0
    0.0351    6.2341    0.2876 C   0  0  0  0  0  0  0  0  0  0  0  0
    1.1187    5.3659    0.1660 C   0  0  0  0  0  0  0  0  0  0  0  0
    0.9411    4.0167    0.1858 C   0  0  0  0  0  0  0  0  0  0  0  0
   -0.3528    3.4876    0.3306 C   0  0  0  0  0  0  0  0  0  0  0  0
   -0.5756    2.1002    0.3549 C   0  0  0  0  0  0  0  0  0  0  0  0
   -1.8427    1.6241    0.4963 C   0  0  0  0  0  0  0  0  0  0  0  0
   -2.9268    2.4924    0.6123 C   0  0  0  0  0  0  0  0  0  0  0  0
   -2.7485    3.8415    0.5988 C   0  0  0  0  0  0  0  0  0  0  0  0
   -1.4545    4.3705    0.4541 C   0  0  0  0  0  0  0  0  0  0  0  0
   -1.2319    5.7579    0.4290 C   0  0  0  0  0  0  0  0  0  0  0  0
    0.8970   14.6283   -0.1439 N   0  0  0  0  0  0  0  0  0  0  0  0
   -1.5633   14.0965   -0.2475 H   0  0  0  0  0  0  0  0  0  0  0  0
   -3.5952   12.8356   -0.8239 H   0  0  0  0  0  0  0  0  0  0  0  0
   -3.4269   10.7411   -2.1038 H   0  0  0  0  0  0  0  0  0  0  0  0
    0.8168   11.1317   -2.2275 H   0  0  0  0  0  0  0  0  0  0  0  0
   -0.3295    9.5558   -3.6713 H   0  0  0  0  0  0  0  0  0  0  0  0
   -2.1010    9.3911   -3.6154 H   0  0  0  0  0  0  0  0  0  0  0  0
   -1.2779    5.4734   -4.9620 H   0  0  0  0  0  0  0  0  0  0  0  0
   -2.0035    4.6543   -3.5581 H   0  0  0  0  0  0  0  0  0  0  0  0
   -3.0477    5.3379   -4.8272 H   0  0  0  0  0  0  0  0  0  0  0  0
    0.9926    8.8153   -1.7717 H   0  0  0  0  0  0  0  0  0  0  0  0
    2.1140    5.7698    0.0549 H   0  0  0  0  0  0  0  0  0  0  0  0
    1.7902    3.3561    0.0901 H   0  0  0  0  0  0  0  0  0  0  0  0
    0.2543    1.4155    0.2616 H   0  0  0  0  0  0  0  0  0  0  0  0
   -2.0111    0.5575    0.5143 H   0  0  0  0  0  0  0  0  0  0  0  0
   -3.9227    2.0885    0.7189 H   0  0  0  0  0  0  0  0  0  0  0  0
   -3.5975    4.5022    0.6935 H   0  0  0  0  0  0  0  0  0  0  0  0
   -2.0619    6.4426    0.5220 H   0  0  0  0  0  0  0  0  0  0  0  0
    0.0289   14.9619    0.1318 H   0  0  0  0  0  0  0  0  0  0  0  0
    1.7005   15.1227    0.0816 H   0  0  0  0  0  0  0  0  0  0  0  0
    2.1424   12.9438   -1.2605 N   0  3  0  0  0  0  0  0  0  0  0  0
    2.1583   12.0634   -1.7887 H   0  0  0  0  0  0  0  0  0  0  0  0
  1 50  1  0  0  0  0
  2  3  1  0  0  0  0
  2 30  1  0  0  0  0
  2 50  2  0  0  0  0
  3  8  2  0  0  0  0
  3  4  1  0  0  0  0
  4  5  2  0  0  0  0
  4 31  1  0  0  0  0
  5  6  1  0  0  0  0
  5 32  1  0  0  0  0
  6  7  2  0  0  0  0
  6 33  1  0  0  0  0
  7  8  1  0  0  0  0
  7  9  1  0  0  0  0
  8 34  1  0  0  0  0
  9 10  1  0  0  0  0
  9 35  1  0  0  0  0
  9 36  1  0  0  0  0
 10 11  1  0  0  0  0
 10 12  1  0  0  0  0
 10 16  1  0  0  0  0
 12 13  2  0  0  0  0
 12 14  1  0  0  0  0
 14 15  1  0  0  0  0
 15 37  1  0  0  0  0
 15 38  1  0  0  0  0
 15 39  1  0  0  0  0
 16 17  1  0  0  0  0
 16 40  1  0  0  0  0
 17 18  2  0  0  0  0
 17 19  2  0  0  0  0
 17 20  1  0  0  0  0
 20 29  2  0  0  0  0
 20 21  1  0  0  0  0
 21 22  2  0  0  0  0
 21 41  1  0  0  0  0
 22 23  1  0  0  0  0
 22 42  1  0  0  0  0
 23 28  2  0  0  0  0
 23 24  1  0  0  0  0
 24 25  2  0  0  0  0
 24 43  1  0  0  0  0
 25 26  1  0  0  0  0
 25 44  1  0  0  0  0
 26 27  2  0  0  0  0
 26 45  1  0  0  0  0
 27 28  1  0  0  0  0
 27 46  1  0  0  0  0
 28 29  1  0  0  0  0
 29 47  1  0  0  0  0
 30 48  1  0  0  0  0
 30 49  1  0  0  0  0
 50 51  1  0  0  0  0
M  CHG  1  50   1
M  END
$$$$
