ZINC03834147
  -OEChem-08230709403D

 64 67  0     1  0  0  0  0  0999 V2000
    6.7597   -1.3340    0.2337 H   0  0  0  0  0  0  0  0  0  0  0  0
    5.0973   -0.2958    0.7843 C   0  0  0  0  0  0  0  0  0  0  0  0
    3.6174   -0.3424    0.7642 C   0  0  0  0  0  0  0  0  0  0  0  0
    2.8763    0.7028    1.3152 C   0  0  0  0  0  0  0  0  0  0  0  0
    1.4977    0.6537    1.2935 C   0  0  0  0  0  0  0  0  0  0  0  0
    0.8501   -0.4296    0.7264 C   0  0  0  0  0  0  0  0  0  0  0  0
    1.5796   -1.4690    0.1779 C   0  0  0  0  0  0  0  0  0  0  0  0
    2.9591   -1.4313    0.1937 C   0  0  0  0  0  0  0  0  0  0  0  0
    0.8665   -2.6448   -0.4387 C   0  0  0  0  0  0  0  0  0  0  0  0
    0.6219   -2.3712   -1.9240 C   0  0  1  0  0  0  0  0  0  0  0  0
    1.5548   -2.0611   -2.3947 H   0  0  0  0  0  0  0  0  0  0  0  0
    0.1163   -3.6254   -2.5892 C   0  0  0  0  0  0  0  0  0  0  0  0
   -1.0306   -3.6850   -2.9788 O   0  0  0  0  0  0  0  0  0  0  0  0
    0.9388   -4.6807   -2.7511 N   0  0  0  0  0  0  0  0  0  0  0  0
    2.3531   -4.5943   -2.3622 C   0  0  0  0  0  0  0  0  0  0  0  0
    3.2218   -5.0007   -3.5512 C   0  0  0  0  0  0  0  0  0  0  0  0
    2.7893   -6.3823   -4.0475 C   0  0  0  0  0  0  0  0  0  0  0  0
    1.3312   -6.3271   -4.5090 C   0  0  0  0  0  0  0  0  0  0  0  0
    0.4398   -5.9376   -3.3257 C   0  0  0  0  0  0  0  0  0  0  0  0
    3.6790   -6.8048   -5.2184 C   0  0  0  0  0  0  0  0  0  0  0  0
   -0.3746   -1.3069   -2.0670 N   0  0  0  0  0  0  0  0  0  0  0  0
    0.0680    0.1643   -2.6849 S   0  0  0  0  0  0  0  0  0  0  0  0
   -1.1053    0.9656   -2.7057 O   0  0  0  0  0  0  0  0  0  0  0  0
    1.2465    0.5568   -1.9947 O   0  0  0  0  0  0  0  0  0  0  0  0
    0.5310   -0.0944   -4.3652 C   0  0  0  0  0  0  0  0  0  0  0  0
   -0.2779    0.3376   -5.3710 C   0  0  0  0  0  0  0  0  0  0  0  0
    0.0690    0.1434   -6.7062 C   0  0  0  0  0  0  0  0  0  0  0  0
    1.2291   -0.4853   -7.0424 C   0  0  0  0  0  0  0  0  0  0  0  0
    2.0878   -0.9442   -6.0309 C   0  0  0  0  0  0  0  0  0  0  0  0
    1.7398   -0.7426   -4.6721 C   0  0  0  0  0  0  0  0  0  0  0  0
    2.5517   -1.1824   -3.7053 N   0  0  0  0  0  0  0  0  0  0  0  0
    3.6778   -1.7919   -3.9859 C   0  0  0  0  0  0  0  0  0  0  0  0
    4.0819   -2.0170   -5.3002 C   0  0  0  0  0  0  0  0  0  0  0  0
    3.2964   -1.5984   -6.3361 C   0  0  0  0  0  0  0  0  0  0  0  0
    5.7450    0.7815    1.3488 N   0  0  0  0  0  0  0  0  0  0  0  0
    3.3807    1.5492    1.7578 H   0  0  0  0  0  0  0  0  0  0  0  0
    0.9227    1.4645    1.7158 H   0  0  0  0  0  0  0  0  0  0  0  0
   -0.2292   -0.4637    0.7117 H   0  0  0  0  0  0  0  0  0  0  0  0
    3.5275   -2.2435   -0.2346 H   0  0  0  0  0  0  0  0  0  0  0  0
    1.4798   -3.5393   -0.3302 H   0  0  0  0  0  0  0  0  0  0  0  0
   -0.0883   -2.7956    0.0651 H   0  0  0  0  0  0  0  0  0  0  0  0
    2.5900   -3.5710   -2.0712 H   0  0  0  0  0  0  0  0  0  0  0  0
    2.5440   -5.2677   -1.5266 H   0  0  0  0  0  0  0  0  0  0  0  0
    4.2672   -5.0351   -3.2445 H   0  0  0  0  0  0  0  0  0  0  0  0
    3.1011   -4.2721   -4.3528 H   0  0  0  0  0  0  0  0  0  0  0  0
    2.8869   -7.1056   -3.2380 H   0  0  0  0  0  0  0  0  0  0  0  0
    1.0311   -7.3055   -4.8840 H   0  0  0  0  0  0  0  0  0  0  0  0
    1.2283   -5.5859   -5.3015 H   0  0  0  0  0  0  0  0  0  0  0  0
    0.4715   -6.7226   -2.5702 H   0  0  0  0  0  0  0  0  0  0  0  0
   -0.5853   -5.8003   -3.6700 H   0  0  0  0  0  0  0  0  0  0  0  0
    3.5812   -6.0819   -6.0282 H   0  0  0  0  0  0  0  0  0  0  0  0
    4.7175   -6.8442   -4.8899 H   0  0  0  0  0  0  0  0  0  0  0  0
    3.3719   -7.7893   -5.5712 H   0  0  0  0  0  0  0  0  0  0  0  0
   -1.2937   -1.4640   -1.7996 H   0  0  0  0  0  0  0  0  0  0  0  0
   -1.2038    0.8388   -5.1300 H   0  0  0  0  0  0  0  0  0  0  0  0
   -0.5909    0.4964   -7.4850 H   0  0  0  0  0  0  0  0  0  0  0  0
    1.4871   -0.6303   -8.0811 H   0  0  0  0  0  0  0  0  0  0  0  0
    4.3093   -2.1282   -3.1770 H   0  0  0  0  0  0  0  0  0  0  0  0
    5.0156   -2.5218   -5.4997 H   0  0  0  0  0  0  0  0  0  0  0  0
    3.5940   -1.7648   -7.3608 H   0  0  0  0  0  0  0  0  0  0  0  0
    5.2316    1.5093    1.7328 H   0  0  0  0  0  0  0  0  0  0  0  0
    6.7144    0.8120    1.3619 H   0  0  0  0  0  0  0  0  0  0  0  0
    5.7397   -1.3198    0.2441 N   0  3  0  0  0  0  0  0  0  0  0  0
    5.2112   -2.0996   -0.1644 H   0  0  0  0  0  0  0  0  0  0  0  0
  1 63  1  0  0  0  0
  2  3  1  0  0  0  0
  2 35  1  0  0  0  0
  2 63  2  0  0  0  0
  3  8  2  0  0  0  0
  3  4  1  0  0  0  0
  4  5  2  0  0  0  0
  4 36  1  0  0  0  0
  5  6  1  0  0  0  0
  5 37  1  0  0  0  0
  6  7  2  0  0  0  0
  6 38  1  0  0  0  0
  7  8  1  0  0  0  0
  7  9  1  0  0  0  0
  8 39  1  0  0  0  0
  9 10  1  0  0  0  0
  9 40  1  0  0  0  0
  9 41  1  0  0  0  0
 10 11  1  0  0  0  0
 10 12  1  0  0  0  0
 10 21  1  0  0  0  0
 12 13  2  0  0  0  0
 12 14  1  0  0  0  0
 14 19  1  0  0  0  0
 14 15  1  0  0  0  0
 15 16  1  0  0  0  0
 15 42  1  0  0  0  0
 15 43  1  0  0  0  0
 16 17  1  0  0  0  0
 16 44  1  0  0  0  0
 16 45  1  0  0  0  0
 17 18  1  0  0  0  0
 17 20  1  0  0  0  0
 17 46  1  0  0  0  0
 18 19  1  0  0  0  0
 18 47  1  0  0  0  0
 18 48  1  0  0  0  0
 19 49  1  0  0  0  0
 19 50  1  0  0  0  0
 20 51  1  0  0  0  0
 20 52  1  0  0  0  0
 20 53  1  0  0  0  0
 21 22  1  0  0  0  0
 21 54  1  0  0  0  0
 22 23  2  0  0  0  0
 22 24  2  0  0  0  0
 22 25  1  0  0  0  0
 25 30  2  0  0  0  0
 25 26  1  0  0  0  0
 26 27  2  0  0  0  0
 26 55  1  0  0  0  0
 27 28  1  0  0  0  0
 27 56  1  0  0  0  0
 28 29  2  0  0  0  0
 28 57  1  0  0  0  0
 29 34  1  0  0  0  0
 29 30  1  0  0  0  0
 30 31  1  0  0  0  0
 31 32  2  0  0  0  0
 32 33  1  0  0  0  0
 32 58  1  0  0  0  0
 33 34  2  0  0  0  0
 33 59  1  0  0  0  0
 34 60  1  0  0  0  0
 35 61  1  0  0  0  0
 35 62  1  0  0  0  0
 63 64  1  0  0  0  0
M  CHG  1  63   1
M  END
$$$$
