ZINC03834120
  -OEChem-08230709403D

 75 78  0     1  0  0  0  0  0999 V2000
   -3.7799    9.6518   -5.8517 H   0  0  0  0  0  0  0  0  0  0  0  0
   -3.7661   10.1112   -3.8684 C   0  0  0  0  0  0  0  0  0  0  0  0
   -3.5312    9.5327   -2.5256 C   0  0  0  0  0  0  0  0  0  0  0  0
   -3.6590   10.3294   -1.3879 C   0  0  0  0  0  0  0  0  0  0  0  0
   -3.4393    9.7848   -0.1395 C   0  0  0  0  0  0  0  0  0  0  0  0
   -3.0983    8.4496   -0.0144 C   0  0  0  0  0  0  0  0  0  0  0  0
   -2.9646    7.6559   -1.1392 C   0  0  0  0  0  0  0  0  0  0  0  0
   -3.1818    8.1893   -2.3935 C   0  0  0  0  0  0  0  0  0  0  0  0
   -2.5869    6.2042   -0.9947 C   0  0  0  0  0  0  0  0  0  0  0  0
   -1.0637    6.0669   -1.0369 C   0  0  1  0  0  0  0  0  0  0  0  0
   -0.6259    6.6192   -0.2053 H   0  0  0  0  0  0  0  0  0  0  0  0
   -0.6872    4.6118   -0.9269 C   0  0  0  0  0  0  0  0  0  0  0  0
   -0.3165    4.0054   -1.9097 O   0  0  0  0  0  0  0  0  0  0  0  0
   -0.7626    3.9843    0.2634 N   0  0  0  0  0  0  0  0  0  0  0  0
   -0.5080    2.5404    0.3652 C   0  0  0  0  0  0  0  0  0  0  0  0
    0.5964    2.3095    1.4041 C   0  0  0  0  0  0  0  0  0  0  0  0
    0.2618    3.0572    2.6243 N   0  0  0  0  0  0  0  0  0  0  0  0
    0.0030    4.5006    2.5216 C   0  0  0  0  0  0  0  0  0  0  0  0
   -1.1013    4.7315    1.4828 C   0  0  0  0  0  0  0  0  0  0  0  0
    0.1719    2.2863    4.0872 S   0  0  0  0  0  0  0  0  0  0  0  0
   -0.7202    3.0777    4.8600 O   0  0  0  0  0  0  0  0  0  0  0  0
   -0.1463    0.9387    3.7679 O   0  0  0  0  0  0  0  0  0  0  0  0
    1.8491    2.3872    4.7711 C   0  0  0  0  0  0  0  0  0  0  0  0
   -0.5594    6.6076   -2.3016 N   0  0  0  0  0  0  0  0  0  0  0  0
   -0.0248    8.1730   -2.3783 S   0  0  0  0  0  0  0  0  0  0  0  0
    0.4187    8.3859   -3.7114 O   0  0  0  0  0  0  0  0  0  0  0  0
   -1.0290    8.9752   -1.7722 O   0  0  0  0  0  0  0  0  0  0  0  0
    1.4008    8.2877   -1.3490 C   0  0  0  0  0  0  0  0  0  0  0  0
    2.6562    8.0493   -1.8774 C   0  0  0  0  0  0  0  0  0  0  0  0
    3.7717    8.1380   -1.0703 C   0  0  0  0  0  0  0  0  0  0  0  0
    3.6381    8.4684    0.2748 C   0  0  0  0  0  0  0  0  0  0  0  0
    2.3808    8.7086    0.8002 C   0  0  0  0  0  0  0  0  0  0  0  0
    1.2649    8.6211   -0.0158 C   0  0  0  0  0  0  0  0  0  0  0  0
    2.1922    9.0751    2.2504 C   0  0  0  0  0  0  0  0  0  0  0  0
    3.4452    8.6979    3.0446 C   0  0  0  0  0  0  0  0  0  0  0  0
    4.6714    9.2261    2.2890 C   0  0  0  0  0  0  0  0  0  0  0  0
    4.7592    8.5415    1.0386 O   0  0  0  0  0  0  0  0  0  0  0  0
    5.9353    8.9633    3.1102 C   0  0  0  0  0  0  0  0  0  0  0  0
    4.5191   10.7287    2.0444 C   0  0  0  0  0  0  0  0  0  0  0  0
   -4.1111   11.4389   -3.9959 N   0  0  0  0  0  0  0  0  0  0  0  0
   -3.9297   11.3706   -1.4840 H   0  0  0  0  0  0  0  0  0  0  0  0
   -3.5376   10.4007    0.7422 H   0  0  0  0  0  0  0  0  0  0  0  0
   -2.9317    8.0266    0.9652 H   0  0  0  0  0  0  0  0  0  0  0  0
   -3.0810    7.5676   -3.2708 H   0  0  0  0  0  0  0  0  0  0  0  0
   -3.0261    5.6314   -1.8114 H   0  0  0  0  0  0  0  0  0  0  0  0
   -2.9598    5.8249   -0.0432 H   0  0  0  0  0  0  0  0  0  0  0  0
   -0.1858    2.1566   -0.6027 H   0  0  0  0  0  0  0  0  0  0  0  0
   -1.4174    2.0272    0.6779 H   0  0  0  0  0  0  0  0  0  0  0  0
    0.6658    1.2463    1.6341 H   0  0  0  0  0  0  0  0  0  0  0  0
    1.5494    2.6614    1.0092 H   0  0  0  0  0  0  0  0  0  0  0  0
    0.9134    5.0113    2.2075 H   0  0  0  0  0  0  0  0  0  0  0  0
   -0.3180    4.8871    3.4890 H   0  0  0  0  0  0  0  0  0  0  0  0
   -1.1708    5.7947    1.2529 H   0  0  0  0  0  0  0  0  0  0  0  0
   -2.0539    4.3767    1.8765 H   0  0  0  0  0  0  0  0  0  0  0  0
    2.1333    3.4335    4.8834 H   0  0  0  0  0  0  0  0  0  0  0  0
    1.8746    1.8971    5.7443 H   0  0  0  0  0  0  0  0  0  0  0  0
    2.5470    1.8915    4.0963 H   0  0  0  0  0  0  0  0  0  0  0  0
   -0.5387    6.0486   -3.0941 H   0  0  0  0  0  0  0  0  0  0  0  0
    2.7635    7.7936   -2.9213 H   0  0  0  0  0  0  0  0  0  0  0  0
    4.7515    7.9507   -1.4838 H   0  0  0  0  0  0  0  0  0  0  0  0
    0.2837    8.8107    0.3936 H   0  0  0  0  0  0  0  0  0  0  0  0
    1.3330    8.5376    2.6516 H   0  0  0  0  0  0  0  0  0  0  0  0
    2.0196   10.1482    2.3332 H   0  0  0  0  0  0  0  0  0  0  0  0
    3.5092    7.6137    3.1367 H   0  0  0  0  0  0  0  0  0  0  0  0
    3.4021    9.1490    4.0360 H   0  0  0  0  0  0  0  0  0  0  0  0
    6.8061    9.3225    2.5619 H   0  0  0  0  0  0  0  0  0  0  0  0
    5.8647    9.4871    4.0635 H   0  0  0  0  0  0  0  0  0  0  0  0
    6.0355    7.8929    3.2904 H   0  0  0  0  0  0  0  0  0  0  0  0
    3.6130   10.9128    1.4671 H   0  0  0  0  0  0  0  0  0  0  0  0
    4.4524   11.2476    3.0005 H   0  0  0  0  0  0  0  0  0  0  0  0
    5.3834   11.0961    1.4910 H   0  0  0  0  0  0  0  0  0  0  0  0
   -4.2003   11.9949   -3.2060 H   0  0  0  0  0  0  0  0  0  0  0  0
   -4.2650   11.8179   -4.8754 H   0  0  0  0  0  0  0  0  0  0  0  0
   -3.6286    9.3003   -4.9061 N   0  3  0  0  0  0  0  0  0  0  0  0
   -3.3697    8.3177   -4.7589 H   0  0  0  0  0  0  0  0  0  0  0  0
  1 74  1  0  0  0  0
  2  3  1  0  0  0  0
  2 40  1  0  0  0  0
  2 74  2  0  0  0  0
  3  8  2  0  0  0  0
  3  4  1  0  0  0  0
  4  5  2  0  0  0  0
  4 41  1  0  0  0  0
  5  6  1  0  0  0  0
  5 42  1  0  0  0  0
  6  7  2  0  0  0  0
  6 43  1  0  0  0  0
  7  8  1  0  0  0  0
  7  9  1  0  0  0  0
  8 44  1  0  0  0  0
  9 10  1  0  0  0  0
  9 45  1  0  0  0  0
  9 46  1  0  0  0  0
 10 11  1  0  0  0  0
 10 12  1  0  0  0  0
 10 24  1  0  0  0  0
 12 13  2  0  0  0  0
 12 14  1  0  0  0  0
 14 19  1  0  0  0  0
 14 15  1  0  0  0  0
 15 16  1  0  0  0  0
 15 47  1  0  0  0  0
 15 48  1  0  0  0  0
 16 17  1  0  0  0  0
 16 49  1  0  0  0  0
 16 50  1  0  0  0  0
 17 18  1  0  0  0  0
 17 20  1  0  0  0  0
 18 19  1  0  0  0  0
 18 51  1  0  0  0  0
 18 52  1  0  0  0  0
 19 53  1  0  0  0  0
 19 54  1  0  0  0  0
 20 21  2  0  0  0  0
 20 22  2  0  0  0  0
 20 23  1  0  0  0  0
 23 55  1  0  0  0  0
 23 56  1  0  0  0  0
 23 57  1  0  0  0  0
 24 25  1  0  0  0  0
 24 58  1  0  0  0  0
 25 26  2  0  0  0  0
 25 27  2  0  0  0  0
 25 28  1  0  0  0  0
 28 33  2  0  0  0  0
 28 29  1  0  0  0  0
 29 30  2  0  0  0  0
 29 59  1  0  0  0  0
 30 31  1  0  0  0  0
 30 60  1  0  0  0  0
 31 37  1  0  0  0  0
 31 32  2  0  0  0  0
 32 33  1  0  0  0  0
 32 34  1  0  0  0  0
 33 61  1  0  0  0  0
 34 35  1  0  0  0  0
 34 62  1  0  0  0  0
 34 63  1  0  0  0  0
 35 36  1  0  0  0  0
 35 64  1  0  0  0  0
 35 65  1  0  0  0  0
 36 37  1  0  0  0  0
 36 38  1  0  0  0  0
 36 39  1  0  0  0  0
 38 66  1  0  0  0  0
 38 67  1  0  0  0  0
 38 68  1  0  0  0  0
 39 69  1  0  0  0  0
 39 70  1  0  0  0  0
 39 71  1  0  0  0  0
 40 72  1  0  0  0  0
 40 73  1  0  0  0  0
 74 75  1  0  0  0  0
M  CHG  1  74   1
M  END
$$$$
