ZINC03834151
  -OEChem-08230709403D

 82 87  0     1  0  0  0  0  0999 V2000
   -3.4352    1.6057    0.0642 H   0  0  0  0  0  0  0  0  0  0  0  0
   -1.5173    2.2885    0.0765 C   0  0  0  0  0  0  0  0  0  0  0  0
   -0.1060    1.8403    0.0702 C   0  0  0  0  0  0  0  0  0  0  0  0
    0.9265    2.7779    0.0802 C   0  0  0  0  0  0  0  0  0  0  0  0
    2.2394    2.3542    0.0684 C   0  0  0  0  0  0  0  0  0  0  0  0
    2.5329    1.0022    0.0463 C   0  0  0  0  0  0  0  0  0  0  0  0
    1.5133    0.0675    0.0367 C   0  0  0  0  0  0  0  0  0  0  0  0
    0.1960    0.4791    0.0483 C   0  0  0  0  0  0  0  0  0  0  0  0
    1.8415   -1.4031    0.0131 C   0  0  0  0  0  0  0  0  0  0  0  0
    1.9467   -1.8789   -1.4372 C   0  0  1  0  0  0  0  0  0  0  0  0
    2.6715   -1.2632   -1.9699 H   0  0  0  0  0  0  0  0  0  0  0  0
    2.3946   -3.3175   -1.4626 C   0  0  0  0  0  0  0  0  0  0  0  0
    1.6900   -4.1632   -1.9719 O   0  0  0  0  0  0  0  0  0  0  0  0
    3.5783   -3.6645   -0.9194 N   0  0  0  0  0  0  0  0  0  0  0  0
    4.5090   -2.6526   -0.4079 C   0  0  0  0  0  0  0  0  0  0  0  0
    5.9109   -2.9775   -0.8588 C   0  0  0  0  0  0  0  0  0  0  0  0
    6.8918   -2.0132   -0.6704 C   0  0  0  0  0  0  0  0  0  0  0  0
    8.1945   -2.2551   -1.0544 C   0  0  0  0  0  0  0  0  0  0  0  0
    8.5256   -3.4676   -1.6305 C   0  0  0  0  0  0  0  0  0  0  0  0
    7.5515   -4.4250   -1.8210 C   0  0  0  0  0  0  0  0  0  0  0  0
    6.2374   -4.1825   -1.4391 C   0  0  0  0  0  0  0  0  0  0  0  0
    5.2256   -5.2692   -1.6911 C   0  0  0  0  0  0  0  0  0  0  0  0
    3.9866   -5.0749   -0.8099 C   0  0  2  0  0  0  0  0  0  0  0  0
    4.2283   -5.3095    0.2268 H   0  0  0  0  0  0  0  0  0  0  0  0
    2.8708   -5.9674   -1.2888 C   0  0  0  0  0  0  0  0  0  0  0  0
    2.8609   -6.3622   -2.4308 O   0  0  0  0  0  0  0  0  0  0  0  0
    1.8880   -6.3239   -0.4469 O   0  0  0  0  0  0  0  0  0  0  0  0
    0.8462   -7.1853   -0.9767 C   0  0  0  0  0  0  0  0  0  0  0  0
   -0.1623   -7.4773    0.1043 C   0  0  0  0  0  0  0  0  0  0  0  0
    0.0024   -8.5780    0.9242 C   0  0  0  0  0  0  0  0  0  0  0  0
   -0.9204   -8.8433    1.9187 C   0  0  0  0  0  0  0  0  0  0  0  0
   -2.0127   -8.0130    2.0874 C   0  0  0  0  0  0  0  0  0  0  0  0
   -2.1801   -6.9153    1.2642 C   0  0  0  0  0  0  0  0  0  0  0  0
   -1.2550   -6.6475    0.2725 C   0  0  0  0  0  0  0  0  0  0  0  0
    0.6380   -1.7635   -2.0852 N   0  0  0  0  0  0  0  0  0  0  0  0
    0.2685   -0.4135   -2.9704 S   0  0  0  0  0  0  0  0  0  0  0  0
   -1.0412   -0.6112   -3.4850 O   0  0  0  0  0  0  0  0  0  0  0  0
    0.6096    0.7063   -2.1649 O   0  0  0  0  0  0  0  0  0  0  0  0
    1.3555   -0.3862   -4.3570 C   0  0  0  0  0  0  0  0  0  0  0  0
    2.5805    0.2710   -4.2560 C   0  0  0  0  0  0  0  0  0  0  0  0
    3.4453    0.3063   -5.3062 C   0  0  0  0  0  0  0  0  0  0  0  0
    3.0961   -0.3183   -6.5157 C   0  0  0  0  0  0  0  0  0  0  0  0
    3.9602   -0.2973   -7.6240 C   0  0  0  0  0  0  0  0  0  0  0  0
    3.5886   -0.9134   -8.7792 C   0  0  0  0  0  0  0  0  0  0  0  0
    2.3614   -1.5658   -8.8819 C   0  0  0  0  0  0  0  0  0  0  0  0
    1.4991   -1.6064   -7.8298 C   0  0  0  0  0  0  0  0  0  0  0  0
    1.8482   -0.9819   -6.6202 C   0  0  0  0  0  0  0  0  0  0  0  0
    0.9838   -1.0022   -5.5121 C   0  0  0  0  0  0  0  0  0  0  0  0
   -1.8127    3.6341    0.0981 N   0  0  0  0  0  0  0  0  0  0  0  0
    0.6987    3.8334    0.0967 H   0  0  0  0  0  0  0  0  0  0  0  0
    3.0398    3.0792    0.0763 H   0  0  0  0  0  0  0  0  0  0  0  0
    3.5622    0.6753    0.0369 H   0  0  0  0  0  0  0  0  0  0  0  0
   -0.5992   -0.2516    0.0408 H   0  0  0  0  0  0  0  0  0  0  0  0
    2.7913   -1.5716    0.5207 H   0  0  0  0  0  0  0  0  0  0  0  0
    1.0541   -1.9592    0.5218 H   0  0  0  0  0  0  0  0  0  0  0  0
    4.2236   -1.6719   -0.7887 H   0  0  0  0  0  0  0  0  0  0  0  0
    4.4719   -2.6434    0.6814 H   0  0  0  0  0  0  0  0  0  0  0  0
    6.6329   -1.0665   -0.2198 H   0  0  0  0  0  0  0  0  0  0  0  0
    8.9527   -1.5003   -0.9059 H   0  0  0  0  0  0  0  0  0  0  0  0
    9.5443   -3.6645   -1.9301 H   0  0  0  0  0  0  0  0  0  0  0  0
    7.8122   -5.3717   -2.2707 H   0  0  0  0  0  0  0  0  0  0  0  0
    4.9290   -5.2469   -2.7398 H   0  0  0  0  0  0  0  0  0  0  0  0
    5.6751   -6.2366   -1.4669 H   0  0  0  0  0  0  0  0  0  0  0  0
    0.3514   -6.6867   -1.8102 H   0  0  0  0  0  0  0  0  0  0  0  0
    1.2884   -8.1195   -1.3230 H   0  0  0  0  0  0  0  0  0  0  0  0
    0.8538   -9.2288    0.7899 H   0  0  0  0  0  0  0  0  0  0  0  0
   -0.7894   -9.7009    2.5620 H   0  0  0  0  0  0  0  0  0  0  0  0
   -2.7350   -8.2218    2.8626 H   0  0  0  0  0  0  0  0  0  0  0  0
   -3.0334   -6.2666    1.3960 H   0  0  0  0  0  0  0  0  0  0  0  0
   -1.3859   -5.7898   -0.3708 H   0  0  0  0  0  0  0  0  0  0  0  0
   -0.0122   -2.4777   -1.9958 H   0  0  0  0  0  0  0  0  0  0  0  0
    2.8492    0.7559   -3.3291 H   0  0  0  0  0  0  0  0  0  0  0  0
    4.3928    0.8161   -5.2122 H   0  0  0  0  0  0  0  0  0  0  0  0
    4.9143    0.2045   -7.5589 H   0  0  0  0  0  0  0  0  0  0  0  0
    4.2546   -0.8960   -9.6292 H   0  0  0  0  0  0  0  0  0  0  0  0
    2.0905   -2.0462   -9.8104 H   0  0  0  0  0  0  0  0  0  0  0  0
    0.5516   -2.1161   -7.9238 H   0  0  0  0  0  0  0  0  0  0  0  0
    0.0297   -1.5038   -5.5772 H   0  0  0  0  0  0  0  0  0  0  0  0
   -1.0961    4.2878    0.1091 H   0  0  0  0  0  0  0  0  0  0  0  0
   -2.7372    3.9277    0.1023 H   0  0  0  0  0  0  0  0  0  0  0  0
   -2.4484    1.3472    0.0606 N   0  3  0  0  0  0  0  0  0  0  0  0
   -2.1772    0.3570    0.0447 H   0  0  0  0  0  0  0  0  0  0  0  0
  1 81  1  0  0  0  0
  2  3  1  0  0  0  0
  2 49  1  0  0  0  0
  2 81  2  0  0  0  0
  3  8  2  0  0  0  0
  3  4  1  0  0  0  0
  4  5  2  0  0  0  0
  4 50  1  0  0  0  0
  5  6  1  0  0  0  0
  5 51  1  0  0  0  0
  6  7  2  0  0  0  0
  6 52  1  0  0  0  0
  7  8  1  0  0  0  0
  7  9  1  0  0  0  0
  8 53  1  0  0  0  0
  9 10  1  0  0  0  0
  9 54  1  0  0  0  0
  9 55  1  0  0  0  0
 10 11  1  0  0  0  0
 10 12  1  0  0  0  0
 10 35  1  0  0  0  0
 12 13  2  0  0  0  0
 12 14  1  0  0  0  0
 14 23  1  0  0  0  0
 14 15  1  0  0  0  0
 15 16  1  0  0  0  0
 15 56  1  0  0  0  0
 15 57  1  0  0  0  0
 16 21  2  0  0  0  0
 16 17  1  0  0  0  0
 17 18  2  0  0  0  0
 17 58  1  0  0  0  0
 18 19  1  0  0  0  0
 18 59  1  0  0  0  0
 19 20  2  0  0  0  0
 19 60  1  0  0  0  0
 20 21  1  0  0  0  0
 20 61  1  0  0  0  0
 21 22  1  0  0  0  0
 22 23  1  0  0  0  0
 22 62  1  0  0  0  0
 22 63  1  0  0  0  0
 23 24  1  0  0  0  0
 23 25  1  0  0  0  0
 25 26  2  0  0  0  0
 25 27  1  0  0  0  0
 27 28  1  0  0  0  0
 28 29  1  0  0  0  0
 28 64  1  0  0  0  0
 28 65  1  0  0  0  0
 29 34  2  0  0  0  0
 29 30  1  0  0  0  0
 30 31  2  0  0  0  0
 30 66  1  0  0  0  0
 31 32  1  0  0  0  0
 31 67  1  0  0  0  0
 32 33  2  0  0  0  0
 32 68  1  0  0  0  0
 33 34  1  0  0  0  0
 33 69  1  0  0  0  0
 34 70  1  0  0  0  0
 35 36  1  0  0  0  0
 35 71  1  0  0  0  0
 36 37  2  0  0  0  0
 36 38  2  0  0  0  0
 36 39  1  0  0  0  0
 39 48  2  0  0  0  0
 39 40  1  0  0  0  0
 40 41  2  0  0  0  0
 40 72  1  0  0  0  0
 41 42  1  0  0  0  0
 41 73  1  0  0  0  0
 42 47  2  0  0  0  0
 42 43  1  0  0  0  0
 43 44  2  0  0  0  0
 43 74  1  0  0  0  0
 44 45  1  0  0  0  0
 44 75  1  0  0  0  0
 45 46  2  0  0  0  0
 45 76  1  0  0  0  0
 46 47  1  0  0  0  0
 46 77  1  0  0  0  0
 47 48  1  0  0  0  0
 48 78  1  0  0  0  0
 49 79  1  0  0  0  0
 49 80  1  0  0  0  0
 81 82  1  0  0  0  0
M  CHG  1  81   1
M  END
$$$$
