ZINC03834121
  -OEChem-08230709403D

 74 77  0     1  0  0  0  0  0999 V2000
   -3.3995   -3.1735   -3.5584 H   0  0  0  0  0  0  0  0  0  0  0  0
   -4.4514   -2.0326   -2.2408 C   0  0  0  0  0  0  0  0  0  0  0  0
   -4.3551   -0.8277   -1.3852 C   0  0  0  0  0  0  0  0  0  0  0  0
   -5.4434   -0.4324   -0.6074 C   0  0  0  0  0  0  0  0  0  0  0  0
   -5.3474    0.6908    0.1880 C   0  0  0  0  0  0  0  0  0  0  0  0
   -4.1748    1.4246    0.2151 C   0  0  0  0  0  0  0  0  0  0  0  0
   -3.0922    1.0376   -0.5540 C   0  0  0  0  0  0  0  0  0  0  0  0
   -3.1779   -0.0811   -1.3577 C   0  0  0  0  0  0  0  0  0  0  0  0
   -1.8188    1.8428   -0.5190 C   0  0  0  0  0  0  0  0  0  0  0  0
   -0.9041    1.3030    0.5823 C   0  0  1  0  0  0  0  0  0  0  0  0
   -0.7441    0.2354    0.4308 H   0  0  0  0  0  0  0  0  0  0  0  0
    0.4196    2.0214    0.5328 C   0  0  0  0  0  0  0  0  0  0  0  0
    0.6852    2.8613    1.3665 O   0  0  0  0  0  0  0  0  0  0  0  0
    1.3084    1.7306   -0.4377 N   0  0  0  0  0  0  0  0  0  0  0  0
    0.9575    0.8007   -1.5198 C   0  0  0  0  0  0  0  0  0  0  0  0
    2.0180   -0.2961   -1.5966 C   0  0  0  0  0  0  0  0  0  0  0  0
    3.4009    0.3435   -1.7407 C   0  0  0  0  0  0  0  0  0  0  0  0
    3.6920    1.2143   -0.5163 C   0  0  0  0  0  0  0  0  0  0  0  0
    2.6486    2.3326   -0.4303 C   0  0  0  0  0  0  0  0  0  0  0  0
    4.4612   -0.7541   -1.8493 C   0  0  0  0  0  0  0  0  0  0  0  0
   -1.5304    1.5224    1.8884 N   0  0  0  0  0  0  0  0  0  0  0  0
   -1.3304    0.4111    3.0997 S   0  0  0  0  0  0  0  0  0  0  0  0
   -2.0806    0.9257    4.1913 O   0  0  0  0  0  0  0  0  0  0  0  0
   -1.6729   -0.8350    2.5087 O   0  0  0  0  0  0  0  0  0  0  0  0
    0.4418    0.4543    3.4840 C   0  0  0  0  0  0  0  0  0  0  0  0
    0.7457   -0.5444    4.6026 C   0  0  1  0  0  0  0  0  0  0  0  0
    0.4490   -2.0402    4.2777 C   0  0  0  0  0  0  0  0  0  0  0  0
    1.3051   -2.8241    5.3279 C   0  0  0  0  0  0  0  0  0  0  0  0
    2.0022   -1.7151    6.1747 C   0  0  1  0  0  0  0  0  0  0  0  0
    2.8684   -2.0301    6.7567 H   0  0  0  0  0  0  0  0  0  0  0  0
    2.2400   -0.6190    5.0759 C   0  0  0  0  0  0  0  0  0  0  0  0
    3.1739   -1.0920    3.9602 C   0  0  0  0  0  0  0  0  0  0  0  0
    2.7141    0.6979    5.6939 C   0  0  0  0  0  0  0  0  0  0  0  0
    0.8394   -1.0548    6.9773 C   0  0  0  0  0  0  0  0  0  0  0  0
    0.0321   -0.2908    5.9380 C   0  0  0  0  0  0  0  0  0  0  0  0
   -0.9591    0.3736    6.1241 O   0  0  0  0  0  0  0  0  0  0  0  0
   -5.6177   -2.7657   -2.2695 N   0  0  0  0  0  0  0  0  0  0  0  0
   -6.3593   -1.0042   -0.6280 H   0  0  0  0  0  0  0  0  0  0  0  0
   -6.1893    0.9976    0.7911 H   0  0  0  0  0  0  0  0  0  0  0  0
   -4.1043    2.3029    0.8396 H   0  0  0  0  0  0  0  0  0  0  0  0
   -2.3334   -0.3796   -1.9612 H   0  0  0  0  0  0  0  0  0  0  0  0
   -2.0548    2.8873   -0.3158 H   0  0  0  0  0  0  0  0  0  0  0  0
   -1.3134    1.7652   -1.4816 H   0  0  0  0  0  0  0  0  0  0  0  0
   -0.0151    0.3532   -1.3160 H   0  0  0  0  0  0  0  0  0  0  0  0
    0.9232    1.3389   -2.4672 H   0  0  0  0  0  0  0  0  0  0  0  0
    1.8209   -0.9346   -2.4579 H   0  0  0  0  0  0  0  0  0  0  0  0
    1.9868   -0.8940   -0.6858 H   0  0  0  0  0  0  0  0  0  0  0  0
    3.4236    0.9605   -2.6389 H   0  0  0  0  0  0  0  0  0  0  0  0
    4.6865    1.6508   -0.6086 H   0  0  0  0  0  0  0  0  0  0  0  0
    3.6452    0.6030    0.3849 H   0  0  0  0  0  0  0  0  0  0  0  0
    2.7549    2.9982   -1.2870 H   0  0  0  0  0  0  0  0  0  0  0  0
    2.7904    2.8975    0.4910 H   0  0  0  0  0  0  0  0  0  0  0  0
    4.4390   -1.3710   -0.9510 H   0  0  0  0  0  0  0  0  0  0  0  0
    4.2540   -1.3744   -2.7213 H   0  0  0  0  0  0  0  0  0  0  0  0
    5.4461   -0.2988   -1.9532 H   0  0  0  0  0  0  0  0  0  0  0  0
   -2.0622    2.3186    2.0436 H   0  0  0  0  0  0  0  0  0  0  0  0
    1.0131    0.1884    2.5946 H   0  0  0  0  0  0  0  0  0  0  0  0
    0.7192    1.4575    3.8074 H   0  0  0  0  0  0  0  0  0  0  0  0
   -0.6115   -2.2549    4.4096 H   0  0  0  0  0  0  0  0  0  0  0  0
    0.7621   -2.2777    3.2610 H   0  0  0  0  0  0  0  0  0  0  0  0
    2.0484   -3.4457    4.8290 H   0  0  0  0  0  0  0  0  0  0  0  0
    0.6601   -3.4356    5.9588 H   0  0  0  0  0  0  0  0  0  0  0  0
    3.1178   -0.3987    3.1210 H   0  0  0  0  0  0  0  0  0  0  0  0
    4.1973   -1.1281    4.3338 H   0  0  0  0  0  0  0  0  0  0  0  0
    2.8721   -2.0863    3.6309 H   0  0  0  0  0  0  0  0  0  0  0  0
    2.0955    0.9368    6.5590 H   0  0  0  0  0  0  0  0  0  0  0  0
    3.7536    0.5990    6.0068 H   0  0  0  0  0  0  0  0  0  0  0  0
    2.6310    1.4961    4.9563 H   0  0  0  0  0  0  0  0  0  0  0  0
    1.2190   -0.4516    7.6787 H   0  0  0  0  0  0  0  0  0  0  0  0
    0.2221   -1.8181    7.4510 H   0  0  0  0  0  0  0  0  0  0  0  0
   -6.3757   -2.4926   -1.7293 H   0  0  0  0  0  0  0  0  0  0  0  0
   -5.6808   -3.5550   -2.8299 H   0  0  0  0  0  0  0  0  0  0  0  0
   -3.3825   -2.3521   -2.9536 N   0  3  0  0  0  0  0  0  0  0  0  0
   -2.5363   -1.7733   -2.8978 H   0  0  0  0  0  0  0  0  0  0  0  0
  1 73  1  0  0  0  0
  2  3  1  0  0  0  0
  2 37  1  0  0  0  0
  2 73  2  0  0  0  0
  3  8  2  0  0  0  0
  3  4  1  0  0  0  0
  4  5  2  0  0  0  0
  4 38  1  0  0  0  0
  5  6  1  0  0  0  0
  5 39  1  0  0  0  0
  6  7  2  0  0  0  0
  6 40  1  0  0  0  0
  7  8  1  0  0  0  0
  7  9  1  0  0  0  0
  8 41  1  0  0  0  0
  9 10  1  0  0  0  0
  9 42  1  0  0  0  0
  9 43  1  0  0  0  0
 10 11  1  0  0  0  0
 10 12  1  0  0  0  0
 10 21  1  0  0  0  0
 12 13  2  0  0  0  0
 12 14  1  0  0  0  0
 14 19  1  0  0  0  0
 14 15  1  0  0  0  0
 15 16  1  0  0  0  0
 15 44  1  0  0  0  0
 15 45  1  0  0  0  0
 16 17  1  0  0  0  0
 16 46  1  0  0  0  0
 16 47  1  0  0  0  0
 17 18  1  0  0  0  0
 17 20  1  0  0  0  0
 17 48  1  0  0  0  0
 18 19  1  0  0  0  0
 18 49  1  0  0  0  0
 18 50  1  0  0  0  0
 19 51  1  0  0  0  0
 19 52  1  0  0  0  0
 20 53  1  0  0  0  0
 20 54  1  0  0  0  0
 20 55  1  0  0  0  0
 21 22  1  0  0  0  0
 21 56  1  0  0  0  0
 22 23  2  0  0  0  0
 22 24  2  0  0  0  0
 22 25  1  0  0  0  0
 25 26  1  0  0  0  0
 25 57  1  0  0  0  0
 25 58  1  0  0  0  0
 26 31  1  0  0  0  0
 26 35  1  0  0  0  0
 26 27  1  0  0  0  0
 27 28  1  0  0  0  0
 27 59  1  0  0  0  0
 27 60  1  0  0  0  0
 28 29  1  0  0  0  0
 28 61  1  0  0  0  0
 28 62  1  0  0  0  0
 29 30  1  0  0  0  0
 29 31  1  0  0  0  0
 29 34  1  0  0  0  0
 31 32  1  0  0  0  0
 31 33  1  0  0  0  0
 32 63  1  0  0  0  0
 32 64  1  0  0  0  0
 32 65  1  0  0  0  0
 33 66  1  0  0  0  0
 33 67  1  0  0  0  0
 33 68  1  0  0  0  0
 34 35  1  0  0  0  0
 34 69  1  0  0  0  0
 34 70  1  0  0  0  0
 35 36  2  0  0  0  0
 37 71  1  0  0  0  0
 37 72  1  0  0  0  0
 73 74  1  0  0  0  0
M  CHG  1  73   1
M  END
$$$$
