ZINC03834128
  -OEChem-08230709403D

 73 76  0     1  0  0  0  0  0999 V2000
    2.6084   -1.7259   -0.0275 H   0  0  0  0  0  0  0  0  0  0  0  0
    0.8445   -0.7092   -0.0205 C   0  0  0  0  0  0  0  0  0  0  0  0
    0.2701    0.6556   -0.0157 C   0  0  0  0  0  0  0  0  0  0  0  0
   -1.1134    0.8330   -0.0175 C   0  0  0  0  0  0  0  0  0  0  0  0
   -1.6426    2.1071   -0.0072 C   0  0  0  0  0  0  0  0  0  0  0  0
   -0.8040    3.2076   -0.0072 C   0  0  0  0  0  0  0  0  0  0  0  0
    0.5688    3.0381   -0.0111 C   0  0  0  0  0  0  0  0  0  0  0  0
    1.1100    1.7686   -0.0152 C   0  0  0  0  0  0  0  0  0  0  0  0
    1.4752    4.2420   -0.0107 C   0  0  0  0  0  0  0  0  0  0  0  0
    1.7786    4.6526   -1.4529 C   0  0  1  0  0  0  0  0  0  0  0  0
    0.8505    4.9221   -1.9570 H   0  0  0  0  0  0  0  0  0  0  0  0
    2.7119    5.8358   -1.4526 C   0  0  0  0  0  0  0  0  0  0  0  0
    3.8942    5.6756   -1.6704 O   0  0  0  0  0  0  0  0  0  0  0  0
    2.2328    7.0720   -1.2104 N   0  0  0  0  0  0  0  0  0  0  0  0
    0.8269    7.2691   -0.8318 C   0  0  0  0  0  0  0  0  0  0  0  0
    0.1957    8.2903   -1.7764 C   0  0  0  0  0  0  0  0  0  0  0  0
    1.0333    9.5710   -1.7730 C   0  0  0  0  0  0  0  0  0  0  0  0
    2.4468    9.2596   -2.2702 C   0  0  0  0  0  0  0  0  0  0  0  0
    3.1049    8.2488   -1.3257 C   0  0  0  0  0  0  0  0  0  0  0  0
    0.3855   10.6064   -2.6944 C   0  0  0  0  0  0  0  0  0  0  0  0
    2.4093    3.5333   -2.1570 N   0  0  0  0  0  0  0  0  0  0  0  0
    1.4862    2.4995   -3.0632 S   0  0  0  0  0  0  0  0  0  0  0  0
    2.3786    1.5512   -3.6325 O   0  0  0  0  0  0  0  0  0  0  0  0
    0.3863    2.1171   -2.2488 O   0  0  0  0  0  0  0  0  0  0  0  0
    0.8214    3.4323   -4.4021 C   0  0  0  0  0  0  0  0  0  0  0  0
   -0.4001    4.0658   -4.2643 C   0  0  0  0  0  0  0  0  0  0  0  0
   -0.9178    4.7992   -5.3119 C   0  0  0  0  0  0  0  0  0  0  0  0
   -0.2201    4.8948   -6.5119 C   0  0  0  0  0  0  0  0  0  0  0  0
    1.0009    4.2582   -6.6476 C   0  0  0  0  0  0  0  0  0  0  0  0
    1.5174    3.5262   -5.5911 C   0  0  0  0  0  0  0  0  0  0  0  0
    1.7951    4.3461   -7.9262 C   0  0  0  0  0  0  0  0  0  0  0  0
    0.8846    4.8038   -9.0683 C   0  0  0  0  0  0  0  0  0  0  0  0
    0.0897    6.0259   -8.5910 C   0  0  0  0  0  0  0  0  0  0  0  0
   -0.7674    5.6169   -7.5241 O   0  0  0  0  0  0  0  0  0  0  0  0
   -0.7506    6.5769   -9.7447 C   0  0  0  0  0  0  0  0  0  0  0  0
    1.0527    7.1057   -8.0933 C   0  0  0  0  0  0  0  0  0  0  0  0
    0.0119   -1.8072   -0.0210 N   0  0  0  0  0  0  0  0  0  0  0  0
   -1.7690   -0.0251   -0.0223 H   0  0  0  0  0  0  0  0  0  0  0  0
   -2.7136    2.2458   -0.0038 H   0  0  0  0  0  0  0  0  0  0  0  0
   -1.2229    4.2030   -0.0037 H   0  0  0  0  0  0  0  0  0  0  0  0
    2.1821    1.6374   -0.0176 H   0  0  0  0  0  0  0  0  0  0  0  0
    0.9838    5.0665    0.5061 H   0  0  0  0  0  0  0  0  0  0  0  0
    2.4059    3.9959    0.5005 H   0  0  0  0  0  0  0  0  0  0  0  0
    0.2916    6.3226   -0.9087 H   0  0  0  0  0  0  0  0  0  0  0  0
    0.7725    7.6398    0.1917 H   0  0  0  0  0  0  0  0  0  0  0  0
   -0.8175    8.5172   -1.4445 H   0  0  0  0  0  0  0  0  0  0  0  0
    0.1647    7.8786   -2.7853 H   0  0  0  0  0  0  0  0  0  0  0  0
    1.0844    9.9685   -0.7592 H   0  0  0  0  0  0  0  0  0  0  0  0
    3.0360   10.1764   -2.2896 H   0  0  0  0  0  0  0  0  0  0  0  0
    2.3947    8.8387   -3.2743 H   0  0  0  0  0  0  0  0  0  0  0  0
    3.2402    8.7011   -0.3432 H   0  0  0  0  0  0  0  0  0  0  0  0
    4.0723    7.9486   -1.7284 H   0  0  0  0  0  0  0  0  0  0  0  0
    0.3348   10.2093   -3.7082 H   0  0  0  0  0  0  0  0  0  0  0  0
   -0.6213   10.8284   -2.3404 H   0  0  0  0  0  0  0  0  0  0  0  0
    0.9813   11.5191   -2.6911 H   0  0  0  0  0  0  0  0  0  0  0  0
    3.3676    3.3977   -2.0921 H   0  0  0  0  0  0  0  0  0  0  0  0
   -0.9465    3.9898   -3.3357 H   0  0  0  0  0  0  0  0  0  0  0  0
   -1.8700    5.2968   -5.2018 H   0  0  0  0  0  0  0  0  0  0  0  0
    2.4687    3.0262   -5.6980 H   0  0  0  0  0  0  0  0  0  0  0  0
    2.6069    5.0624   -7.8002 H   0  0  0  0  0  0  0  0  0  0  0  0
    2.2101    3.3665   -8.1634 H   0  0  0  0  0  0  0  0  0  0  0  0
    0.1980    4.0003   -9.3352 H   0  0  0  0  0  0  0  0  0  0  0  0
    1.4884    5.0737   -9.9346 H   0  0  0  0  0  0  0  0  0  0  0  0
   -1.3285    7.4331   -9.3968 H   0  0  0  0  0  0  0  0  0  0  0  0
   -0.0934    6.8879  -10.5568 H   0  0  0  0  0  0  0  0  0  0  0  0
   -1.4287    5.8021  -10.1026 H   0  0  0  0  0  0  0  0  0  0  0  0
    1.6559    6.7068   -7.2779 H   0  0  0  0  0  0  0  0  0  0  0  0
    1.7049    7.4152   -8.9100 H   0  0  0  0  0  0  0  0  0  0  0  0
    0.4833    7.9645   -7.7377 H   0  0  0  0  0  0  0  0  0  0  0  0
   -0.9504   -1.6860   -0.0181 H   0  0  0  0  0  0  0  0  0  0  0  0
    0.3882   -2.7011   -0.0241 H   0  0  0  0  0  0  0  0  0  0  0  0
    2.1650   -0.8071   -0.0242 N   0  3  0  0  0  0  0  0  0  0  0  0
    2.7427    0.0417   -0.0236 H   0  0  0  0  0  0  0  0  0  0  0  0
  1 72  1  0  0  0  0
  2  3  1  0  0  0  0
  2 37  1  0  0  0  0
  2 72  2  0  0  0  0
  3  8  2  0  0  0  0
  3  4  1  0  0  0  0
  4  5  2  0  0  0  0
  4 38  1  0  0  0  0
  5  6  1  0  0  0  0
  5 39  1  0  0  0  0
  6  7  2  0  0  0  0
  6 40  1  0  0  0  0
  7  8  1  0  0  0  0
  7  9  1  0  0  0  0
  8 41  1  0  0  0  0
  9 10  1  0  0  0  0
  9 42  1  0  0  0  0
  9 43  1  0  0  0  0
 10 11  1  0  0  0  0
 10 12  1  0  0  0  0
 10 21  1  0  0  0  0
 12 13  2  0  0  0  0
 12 14  1  0  0  0  0
 14 19  1  0  0  0  0
 14 15  1  0  0  0  0
 15 16  1  0  0  0  0
 15 44  1  0  0  0  0
 15 45  1  0  0  0  0
 16 17  1  0  0  0  0
 16 46  1  0  0  0  0
 16 47  1  0  0  0  0
 17 18  1  0  0  0  0
 17 20  1  0  0  0  0
 17 48  1  0  0  0  0
 18 19  1  0  0  0  0
 18 49  1  0  0  0  0
 18 50  1  0  0  0  0
 19 51  1  0  0  0  0
 19 52  1  0  0  0  0
 20 53  1  0  0  0  0
 20 54  1  0  0  0  0
 20 55  1  0  0  0  0
 21 22  1  0  0  0  0
 21 56  1  0  0  0  0
 22 23  2  0  0  0  0
 22 24  2  0  0  0  0
 22 25  1  0  0  0  0
 25 30  2  0  0  0  0
 25 26  1  0  0  0  0
 26 27  2  0  0  0  0
 26 57  1  0  0  0  0
 27 28  1  0  0  0  0
 27 58  1  0  0  0  0
 28 34  1  0  0  0  0
 28 29  2  0  0  0  0
 29 30  1  0  0  0  0
 29 31  1  0  0  0  0
 30 59  1  0  0  0  0
 31 32  1  0  0  0  0
 31 60  1  0  0  0  0
 31 61  1  0  0  0  0
 32 33  1  0  0  0  0
 32 62  1  0  0  0  0
 32 63  1  0  0  0  0
 33 34  1  0  0  0  0
 33 35  1  0  0  0  0
 33 36  1  0  0  0  0
 35 64  1  0  0  0  0
 35 65  1  0  0  0  0
 35 66  1  0  0  0  0
 36 67  1  0  0  0  0
 36 68  1  0  0  0  0
 36 69  1  0  0  0  0
 37 70  1  0  0  0  0
 37 71  1  0  0  0  0
 72 73  1  0  0  0  0
M  CHG  1  72   1
M  END
$$$$
