ZINC03834162
  -OEChem-08230709403D

 54 56  0     0  0  0  0  0  0999 V2000
   -2.2308    5.7736    3.8503 C   0  0  0  0  0  0  0  0  0  0  0  0
   -1.5383    5.2156    2.6337 C   0  0  0  0  0  0  0  0  0  0  0  0
   -1.4308    3.8479    2.4677 C   0  0  0  0  0  0  0  0  0  0  0  0
   -0.7934    3.3317    1.3486 C   0  0  0  0  0  0  0  0  0  0  0  0
   -0.2593    4.1894    0.3990 C   0  0  0  0  0  0  0  0  0  0  0  0
   -0.3731    5.5608    0.5652 C   0  0  0  0  0  0  0  0  0  0  0  0
   -1.0117    6.0723    1.6863 C   0  0  0  0  0  0  0  0  0  0  0  0
    0.1444    6.4040   -0.3666 O   0  0  0  0  0  0  0  0  0  0  0  0
    1.5907    6.8007   -0.1073 S   0  0  0  0  0  0  0  0  0  0  0  0
    1.9028    7.8287   -1.0374 O   0  0  0  0  0  0  0  0  0  0  0  0
    1.7173    6.9795    1.2967 O   0  0  0  0  0  0  0  0  0  0  0  0
    2.5947    5.4162   -0.5312 C   0  0  0  0  0  0  0  0  0  0  0  0
    2.9042    4.4679    0.4258 C   0  0  0  0  0  0  0  0  0  0  0  0
    3.6882    3.3794    0.0924 C   0  0  0  0  0  0  0  0  0  0  0  0
    4.1713    3.2435   -1.1960 C   0  0  0  0  0  0  0  0  0  0  0  0
    3.8670    4.1937   -2.1522 C   0  0  0  0  0  0  0  0  0  0  0  0
    3.0781    5.2810   -1.8202 C   0  0  0  0  0  0  0  0  0  0  0  0
    2.6958    6.4753   -3.0207 Cl  0  0  0  0  0  0  0  0  0  0  0  0
   -0.6875    1.9866    1.1861 O   0  0  0  0  0  0  0  0  0  0  0  0
   -0.0187    1.5258    0.0104 C   0  0  0  0  0  0  0  0  0  0  0  0
    0.0021   -0.0041    0.0020 C   0  0  0  0  0  0  0  0  0  0  0  0
    0.8464   -0.5090    1.1743 C   0  0  0  0  0  0  0  0  0  0  0  0
    0.8365   -2.0408    1.1831 C   0  0  0  0  0  0  0  0  0  0  0  0
    1.2794   -2.5241   -0.1318 N   0  3  0  0  0  0  0  0  0  0  0  0
    2.2623   -3.3745   -0.2302 C   0  0  0  0  0  0  0  0  0  0  0  0
    3.3180   -3.3097    0.6481 N   0  0  0  0  0  0  0  0  0  0  0  0
    2.2434   -4.3363   -1.2124 N   0  0  0  0  0  0  0  0  0  0  0  0
    0.5936   -2.0303   -1.3337 C   0  0  0  0  0  0  0  0  0  0  0  0
    0.6062   -0.4985   -1.3143 C   0  0  0  0  0  0  0  0  0  0  0  0
   -1.5028    5.9172    4.6488 H   0  0  0  0  0  0  0  0  0  0  0  0
   -2.6895    6.7303    3.6005 H   0  0  0  0  0  0  0  0  0  0  0  0
   -3.0008    5.0770    4.1816 H   0  0  0  0  0  0  0  0  0  0  0  0
   -1.8436    3.1803    3.2095 H   0  0  0  0  0  0  0  0  0  0  0  0
    0.2408    3.7895   -0.4707 H   0  0  0  0  0  0  0  0  0  0  0  0
   -1.0972    7.1408    1.8181 H   0  0  0  0  0  0  0  0  0  0  0  0
    2.5305    4.5756    1.4333 H   0  0  0  0  0  0  0  0  0  0  0  0
    3.9269    2.6370    0.8395 H   0  0  0  0  0  0  0  0  0  0  0  0
    4.7870    2.3948   -1.4550 H   0  0  0  0  0  0  0  0  0  0  0  0
    4.2450    4.0878   -3.1583 H   0  0  0  0  0  0  0  0  0  0  0  0
    1.0039    1.9031    0.0027 H   0  0  0  0  0  0  0  0  0  0  0  0
   -0.5459    1.8868   -0.8726 H   0  0  0  0  0  0  0  0  0  0  0  0
   -1.0159   -0.3816    0.0988 H   0  0  0  0  0  0  0  0  0  0  0  0
    1.8706   -0.1524    1.0651 H   0  0  0  0  0  0  0  0  0  0  0  0
    0.4290   -0.1371    2.1100 H   0  0  0  0  0  0  0  0  0  0  0  0
   -0.1736   -2.3986    1.3826 H   0  0  0  0  0  0  0  0  0  0  0  0
    1.5148   -2.4062    1.9541 H   0  0  0  0  0  0  0  0  0  0  0  0
    3.3313   -2.6311    1.3411 H   0  0  0  0  0  0  0  0  0  0  0  0
    4.0494   -3.9425    0.5749 H   0  0  0  0  0  0  0  0  0  0  0  0
    1.4986   -4.3821   -1.8322 H   0  0  0  0  0  0  0  0  0  0  0  0
    2.9749   -4.9692   -1.2857 H   0  0  0  0  0  0  0  0  0  0  0  0
   -0.4363   -2.3872   -1.3394 H   0  0  0  0  0  0  0  0  0  0  0  0
    1.1116   -2.3887   -2.2232 H   0  0  0  0  0  0  0  0  0  0  0  0
    0.0179   -0.1192   -2.1498 H   0  0  0  0  0  0  0  0  0  0  0  0
    1.6325   -0.1416   -1.4003 H   0  0  0  0  0  0  0  0  0  0  0  0
  1  2  1  0  0  0  0
  1 30  1  0  0  0  0
  1 31  1  0  0  0  0
  1 32  1  0  0  0  0
  2  7  2  0  0  0  0
  2  3  1  0  0  0  0
  3  4  2  0  0  0  0
  3 33  1  0  0  0  0
  4  5  1  0  0  0  0
  4 19  1  0  0  0  0
  5  6  2  0  0  0  0
  5 34  1  0  0  0  0
  6  7  1  0  0  0  0
  6  8  1  0  0  0  0
  7 35  1  0  0  0  0
  8  9  1  0  0  0  0
  9 10  2  0  0  0  0
  9 11  2  0  0  0  0
  9 12  1  0  0  0  0
 12 17  2  0  0  0  0
 12 13  1  0  0  0  0
 13 14  2  0  0  0  0
 13 36  1  0  0  0  0
 14 15  1  0  0  0  0
 14 37  1  0  0  0  0
 15 16  2  0  0  0  0
 15 38  1  0  0  0  0
 16 17  1  0  0  0  0
 16 39  1  0  0  0  0
 17 18  1  0  0  0  0
 19 20  1  0  0  0  0
 20 21  1  0  0  0  0
 20 40  1  0  0  0  0
 20 41  1  0  0  0  0
 21 29  1  0  0  0  0
 21 22  1  0  0  0  0
 21 42  1  0  0  0  0
 22 23  1  0  0  0  0
 22 43  1  0  0  0  0
 22 44  1  0  0  0  0
 23 24  1  0  0  0  0
 23 45  1  0  0  0  0
 23 46  1  0  0  0  0
 24 25  2  0  0  0  0
 24 28  1  0  0  0  0
 25 26  1  0  0  0  0
 25 27  1  0  0  0  0
 26 47  1  0  0  0  0
 26 48  1  0  0  0  0
 27 49  1  0  0  0  0
 27 50  1  0  0  0  0
 28 29  1  0  0  0  0
 28 51  1  0  0  0  0
 28 52  1  0  0  0  0
 29 53  1  0  0  0  0
 29 54  1  0  0  0  0
M  CHG  1  24   1
M  END
$$$$
