ZINC03834150
  -OEChem-08230709403D

 65 68  0     1  0  0  0  0  0999 V2000
    5.7829   -0.2081   -0.0553 H   0  0  0  0  0  0  0  0  0  0  0  0
    3.8647   -0.8896   -0.0404 C   0  0  0  0  0  0  0  0  0  0  0  0
    2.4537   -0.4404   -0.0240 C   0  0  0  0  0  0  0  0  0  0  0  0
    1.4206   -1.3775   -0.0192 C   0  0  0  0  0  0  0  0  0  0  0  0
    0.1080   -0.9528   -0.0045 C   0  0  0  0  0  0  0  0  0  0  0  0
   -0.1845    0.3995    0.0056 C   0  0  0  0  0  0  0  0  0  0  0  0
    0.8357    1.3336    0.0010 C   0  0  0  0  0  0  0  0  0  0  0  0
    2.1526    0.9211   -0.0138 C   0  0  0  0  0  0  0  0  0  0  0  0
    0.5085    2.8046    0.0117 C   0  0  0  0  0  0  0  0  0  0  0  0
    0.4111    3.2949    1.4577 C   0  0  1  0  0  0  0  0  0  0  0  0
    1.3322    3.0507    1.9870 H   0  0  0  0  0  0  0  0  0  0  0  0
    0.2060    4.7878    1.4691 C   0  0  0  0  0  0  0  0  0  0  0  0
   -0.7877    5.2595    1.9800 O   0  0  0  0  0  0  0  0  0  0  0  0
    1.1267    5.5989    0.9115 N   0  0  0  0  0  0  0  0  0  0  0  0
    2.3777    5.1621    0.2652 C   0  0  0  0  0  0  0  0  0  0  0  0
    3.3229    6.3831    0.3597 C   0  0  0  0  0  0  0  0  0  0  0  0
    2.3353    7.5616    0.1514 C   0  0  0  0  0  0  0  0  0  0  0  0
    1.0531    7.0661    0.8529 C   0  0  1  0  0  0  0  0  0  0  0  0
    0.9981    7.4751    1.8618 H   0  0  0  0  0  0  0  0  0  0  0  0
   -0.1589    7.4872    0.0625 C   0  0  0  0  0  0  0  0  0  0  0  0
   -0.8933    6.6514   -0.4084 O   0  0  0  0  0  0  0  0  0  0  0  0
   -0.4225    8.7908   -0.1184 O   0  0  0  0  0  0  0  0  0  0  0  0
   -1.6068    9.1231   -0.8900 C   0  0  0  0  0  0  0  0  0  0  0  0
   -0.7205    2.6414    2.1198 N   0  0  0  0  0  0  0  0  0  0  0  0
   -0.6244    2.2448    3.7247 S   0  0  0  0  0  0  0  0  0  0  0  0
   -1.8709    1.6587    4.0736 O   0  0  0  0  0  0  0  0  0  0  0  0
    0.6122    1.5675    3.9023 O   0  0  0  0  0  0  0  0  0  0  0  0
   -0.5066    3.7531    4.6279 C   0  0  0  0  0  0  0  0  0  0  0  0
    0.7488    4.2933    4.9013 C   0  0  0  0  0  0  0  0  0  0  0  0
    0.8746    5.4593    5.5917 C   0  0  0  0  0  0  0  0  0  0  0  0
   -0.2761    6.1251    6.0474 C   0  0  0  0  0  0  0  0  0  0  0  0
   -0.1857    7.3277    6.7692 C   0  0  0  0  0  0  0  0  0  0  0  0
   -1.3217    7.9449    7.1944 C   0  0  0  0  0  0  0  0  0  0  0  0
   -2.5769    7.4019    6.9257 C   0  0  0  0  0  0  0  0  0  0  0  0
   -2.7030    6.2390    6.2300 C   0  0  0  0  0  0  0  0  0  0  0  0
   -1.5524    5.5732    5.7741 C   0  0  0  0  0  0  0  0  0  0  0  0
   -1.6426    4.3702    5.0530 C   0  0  0  0  0  0  0  0  0  0  0  0
    4.1591   -2.2356   -0.0509 N   0  0  0  0  0  0  0  0  0  0  0  0
    1.6476   -2.4333   -0.0268 H   0  0  0  0  0  0  0  0  0  0  0  0
   -0.6928   -1.6774   -0.0011 H   0  0  0  0  0  0  0  0  0  0  0  0
   -1.2136    0.7272    0.0126 H   0  0  0  0  0  0  0  0  0  0  0  0
    2.9484    1.6512   -0.0171 H   0  0  0  0  0  0  0  0  0  0  0  0
    1.2936    3.3552   -0.5066 H   0  0  0  0  0  0  0  0  0  0  0  0
   -0.4438    2.9686   -0.4925 H   0  0  0  0  0  0  0  0  0  0  0  0
    2.8025    4.3109    0.7973 H   0  0  0  0  0  0  0  0  0  0  0  0
    2.1959    4.9059   -0.7786 H   0  0  0  0  0  0  0  0  0  0  0  0
    4.0747    6.3594   -0.4291 H   0  0  0  0  0  0  0  0  0  0  0  0
    3.7920    6.4354    1.3422 H   0  0  0  0  0  0  0  0  0  0  0  0
    2.1537    7.7296   -0.9101 H   0  0  0  0  0  0  0  0  0  0  0  0
    2.7083    8.4692    0.6259 H   0  0  0  0  0  0  0  0  0  0  0  0
   -1.7025   10.2066   -0.9603 H   0  0  0  0  0  0  0  0  0  0  0  0
   -1.5185    8.7006   -1.8909 H   0  0  0  0  0  0  0  0  0  0  0  0
   -2.4881    8.7116   -0.3983 H   0  0  0  0  0  0  0  0  0  0  0  0
   -1.5262    2.4410    1.6181 H   0  0  0  0  0  0  0  0  0  0  0  0
    1.6348    3.7810    4.5564 H   0  0  0  0  0  0  0  0  0  0  0  0
    1.8537    5.8680    5.7930 H   0  0  0  0  0  0  0  0  0  0  0  0
    0.7802    7.7601    6.9848 H   0  0  0  0  0  0  0  0  0  0  0  0
   -1.2494    8.8690    7.7485 H   0  0  0  0  0  0  0  0  0  0  0  0
   -3.4627    7.9115    7.2751 H   0  0  0  0  0  0  0  0  0  0  0  0
   -3.6822    5.8299    6.0294 H   0  0  0  0  0  0  0  0  0  0  0  0
   -2.6085    3.9377    4.8376 H   0  0  0  0  0  0  0  0  0  0  0  0
    3.4421   -2.8889   -0.0476 H   0  0  0  0  0  0  0  0  0  0  0  0
    5.0833   -2.5299   -0.0616 H   0  0  0  0  0  0  0  0  0  0  0  0
    4.7963    0.0511   -0.0441 N   0  3  0  0  0  0  0  0  0  0  0  0
    4.5258    1.0416   -0.0358 H   0  0  0  0  0  0  0  0  0  0  0  0
  1 64  1  0  0  0  0
  2  3  1  0  0  0  0
  2 38  1  0  0  0  0
  2 64  2  0  0  0  0
  3  8  2  0  0  0  0
  3  4  1  0  0  0  0
  4  5  2  0  0  0  0
  4 39  1  0  0  0  0
  5  6  1  0  0  0  0
  5 40  1  0  0  0  0
  6  7  2  0  0  0  0
  6 41  1  0  0  0  0
  7  8  1  0  0  0  0
  7  9  1  0  0  0  0
  8 42  1  0  0  0  0
  9 10  1  0  0  0  0
  9 43  1  0  0  0  0
  9 44  1  0  0  0  0
 10 11  1  0  0  0  0
 10 12  1  0  0  0  0
 10 24  1  0  0  0  0
 12 13  2  0  0  0  0
 12 14  1  0  0  0  0
 14 18  1  0  0  0  0
 14 15  1  0  0  0  0
 15 16  1  0  0  0  0
 15 45  1  0  0  0  0
 15 46  1  0  0  0  0
 16 17  1  0  0  0  0
 16 47  1  0  0  0  0
 16 48  1  0  0  0  0
 17 18  1  0  0  0  0
 17 49  1  0  0  0  0
 17 50  1  0  0  0  0
 18 19  1  0  0  0  0
 18 20  1  0  0  0  0
 20 21  2  0  0  0  0
 20 22  1  0  0  0  0
 22 23  1  0  0  0  0
 23 51  1  0  0  0  0
 23 52  1  0  0  0  0
 23 53  1  0  0  0  0
 24 25  1  0  0  0  0
 24 54  1  0  0  0  0
 25 26  2  0  0  0  0
 25 27  2  0  0  0  0
 25 28  1  0  0  0  0
 28 37  2  0  0  0  0
 28 29  1  0  0  0  0
 29 30  2  0  0  0  0
 29 55  1  0  0  0  0
 30 31  1  0  0  0  0
 30 56  1  0  0  0  0
 31 36  2  0  0  0  0
 31 32  1  0  0  0  0
 32 33  2  0  0  0  0
 32 57  1  0  0  0  0
 33 34  1  0  0  0  0
 33 58  1  0  0  0  0
 34 35  2  0  0  0  0
 34 59  1  0  0  0  0
 35 36  1  0  0  0  0
 35 60  1  0  0  0  0
 36 37  1  0  0  0  0
 37 61  1  0  0  0  0
 38 62  1  0  0  0  0
 38 63  1  0  0  0  0
 64 65  1  0  0  0  0
M  CHG  1  64   1
M  END
$$$$
