ZINC03814029
  -OEChem-08230709403D

 62 64  0     0  0  0  0  0  0999 V2000
   -3.5431    1.7401   -2.4488 C   0  0  0  0  0  0  0  0  0  0  0  0
   -4.1308    2.2256   -1.1488 C   0  0  0  0  0  0  0  0  0  0  0  0
   -5.1705    3.0899   -1.1675 C   0  0  0  0  0  0  0  0  0  0  0  0
   -5.7248    3.5478    0.0368 C   0  0  0  0  0  0  0  0  0  0  0  0
   -5.2011    3.1105    1.2222 C   0  0  0  0  0  0  0  0  0  0  0  0
   -4.1181    2.2043    1.2044 C   0  0  0  0  0  0  0  0  0  0  0  0
   -3.6421    1.8003    2.2534 O   0  0  0  0  0  0  0  0  0  0  0  0
   -3.6084    1.7894    0.0289 N   0  0  0  0  0  0  0  0  0  0  0  0
   -2.4820    0.8526    0.0185 C   0  0  0  0  0  0  0  0  0  0  0  0
   -1.1873    1.6238    0.0165 C   0  0  0  0  0  0  0  0  0  0  0  0
   -1.2037    2.8365    0.0232 O   0  0  0  0  0  0  0  0  0  0  0  0
   -0.0111    0.9658    0.0074 N   0  0  0  0  0  0  0  0  0  0  0  0
    1.2475    1.7155   -0.0006 C   0  0  0  0  0  0  0  0  0  0  0  0
    2.4238    0.7372   -0.0171 C   0  0  0  0  0  0  0  0  0  0  0  0
    2.4385   -0.0646    1.2859 C   0  0  0  0  0  0  0  0  0  0  0  0
    3.6148   -1.0429    1.2694 C   0  0  0  0  0  0  0  0  0  0  0  0
    4.9245   -0.2635    1.1353 C   0  0  0  0  0  0  0  0  0  0  0  0
    4.9098    0.5383   -0.1677 C   0  0  0  0  0  0  0  0  0  0  0  0
    3.7335    1.5166   -0.1512 C   0  0  0  0  0  0  0  0  0  0  0  0
   -5.7360    3.5518    2.4389 N   0  0  0  0  0  0  0  0  0  0  0  0
   -7.0103    4.6094    2.4482 S   0  0  0  0  0  0  0  0  0  0  0  0
   -7.2691    4.8531    3.8240 O   0  0  0  0  0  0  0  0  0  0  0  0
   -6.6098    5.6671    1.5879 O   0  0  0  0  0  0  0  0  0  0  0  0
   -8.3861    3.6882    1.7072 C   0  0  0  0  0  0  0  0  0  0  0  0
   -9.6118    4.5639    1.6646 C   0  0  0  0  0  0  0  0  0  0  0  0
  -10.4965    4.5666    2.7267 C   0  0  0  0  0  0  0  0  0  0  0  0
  -11.6181    5.3739    2.6899 C   0  0  0  0  0  0  0  0  0  0  0  0
  -11.8606    6.1701    1.5863 C   0  0  0  0  0  0  0  0  0  0  0  0
  -10.9789    6.1631    0.5217 C   0  0  0  0  0  0  0  0  0  0  0  0
   -9.8543    5.3601    0.5610 C   0  0  0  0  0  0  0  0  0  0  0  0
   -4.0581    0.8325   -2.7638 H   0  0  0  0  0  0  0  0  0  0  0  0
   -3.6633    2.5094   -3.2116 H   0  0  0  0  0  0  0  0  0  0  0  0
   -2.4830    1.5273   -2.3113 H   0  0  0  0  0  0  0  0  0  0  0  0
   -5.5747    3.4275   -2.1104 H   0  0  0  0  0  0  0  0  0  0  0  0
   -6.5557    4.2376    0.0281 H   0  0  0  0  0  0  0  0  0  0  0  0
   -2.5355    0.2301   -0.8747 H   0  0  0  0  0  0  0  0  0  0  0  0
   -2.5271    0.2204    0.9052 H   0  0  0  0  0  0  0  0  0  0  0  0
    0.0021   -0.0041    0.0020 H   0  0  0  0  0  0  0  0  0  0  0  0
    1.2883    2.3477   -0.8877 H   0  0  0  0  0  0  0  0  0  0  0  0
    1.3053    2.3381    0.8922 H   0  0  0  0  0  0  0  0  0  0  0  0
    2.3182    0.0562   -0.8616 H   0  0  0  0  0  0  0  0  0  0  0  0
    2.5442    0.6164    2.1304 H   0  0  0  0  0  0  0  0  0  0  0  0
    1.5054   -0.6199    1.3814 H   0  0  0  0  0  0  0  0  0  0  0  0
    3.5092   -1.7239    0.4249 H   0  0  0  0  0  0  0  0  0  0  0  0
    3.6253   -1.6142    2.1976 H   0  0  0  0  0  0  0  0  0  0  0  0
    5.0302    0.4175    1.9798 H   0  0  0  0  0  0  0  0  0  0  0  0
    4.8042   -0.1427   -1.0122 H   0  0  0  0  0  0  0  0  0  0  0  0
    5.8429    1.0936   -0.2632 H   0  0  0  0  0  0  0  0  0  0  0  0
    3.7230    2.0879   -1.0794 H   0  0  0  0  0  0  0  0  0  0  0  0
    3.8392    2.1976    0.6933 H   0  0  0  0  0  0  0  0  0  0  0  0
    6.0855   -1.7447    1.9701 H   0  0  0  0  0  0  0  0  0  0  0  0
    6.0135   -1.8032    0.3096 H   0  0  0  0  0  0  0  0  0  0  0  0
   -5.3601    3.2379    3.2762 H   0  0  0  0  0  0  0  0  0  0  0  0
   -8.1185    3.3881    0.6941 H   0  0  0  0  0  0  0  0  0  0  0  0
   -8.5938    2.8013    2.3059 H   0  0  0  0  0  0  0  0  0  0  0  0
  -10.3094    3.9412    3.5871 H   0  0  0  0  0  0  0  0  0  0  0  0
  -12.3068    5.3796    3.5218 H   0  0  0  0  0  0  0  0  0  0  0  0
  -12.7388    6.7980    1.5559 H   0  0  0  0  0  0  0  0  0  0  0  0
  -11.1683    6.7852   -0.3405 H   0  0  0  0  0  0  0  0  0  0  0  0
   -9.1654    5.3547   -0.2708 H   0  0  0  0  0  0  0  0  0  0  0  0
    6.0731   -1.1864    1.1181 N   0  3  0  0  0  0  0  0  0  0  0  0
    6.9422   -0.6426    1.0613 H   0  0  0  0  0  0  0  0  0  0  0  0
  1  2  1  0  0  0  0
  1 31  1  0  0  0  0
  1 32  1  0  0  0  0
  1 33  1  0  0  0  0
  2  8  1  0  0  0  0
  2  3  2  0  0  0  0
  3  4  1  0  0  0  0
  3 34  1  0  0  0  0
  4  5  2  0  0  0  0
  4 35  1  0  0  0  0
  5  6  1  0  0  0  0
  5 20  1  0  0  0  0
  6  7  2  0  0  0  0
  6  8  1  0  0  0  0
  8  9  1  0  0  0  0
  9 10  1  0  0  0  0
  9 36  1  0  0  0  0
  9 37  1  0  0  0  0
 10 11  2  0  0  0  0
 10 12  1  0  0  0  0
 12 13  1  0  0  0  0
 12 38  1  0  0  0  0
 13 14  1  0  0  0  0
 13 39  1  0  0  0  0
 13 40  1  0  0  0  0
 14 19  1  0  0  0  0
 14 15  1  0  0  0  0
 14 41  1  0  0  0  0
 15 16  1  0  0  0  0
 15 42  1  0  0  0  0
 15 43  1  0  0  0  0
 16 17  1  0  0  0  0
 16 44  1  0  0  0  0
 16 45  1  0  0  0  0
 17 18  1  0  0  0  0
 17 46  1  0  0  0  0
 17 61  1  0  0  0  0
 18 19  1  0  0  0  0
 18 47  1  0  0  0  0
 18 48  1  0  0  0  0
 19 49  1  0  0  0  0
 19 50  1  0  0  0  0
 20 21  1  0  0  0  0
 20 53  1  0  0  0  0
 21 22  2  0  0  0  0
 21 23  2  0  0  0  0
 21 24  1  0  0  0  0
 24 25  1  0  0  0  0
 24 54  1  0  0  0  0
 24 55  1  0  0  0  0
 25 30  2  0  0  0  0
 25 26  1  0  0  0  0
 26 27  2  0  0  0  0
 26 56  1  0  0  0  0
 27 28  1  0  0  0  0
 27 57  1  0  0  0  0
 28 29  2  0  0  0  0
 28 58  1  0  0  0  0
 29 30  1  0  0  0  0
 29 59  1  0  0  0  0
 30 60  1  0  0  0  0
 51 61  1  0  0  0  0
 52 61  1  0  0  0  0
 61 62  1  0  0  0  0
M  CHG  1  61   1
M  END
$$$$
