ZINC03815453
  -OEChem-08230709403D

 65 70  0     1  0  0  0  0  0999 V2000
    0.0188    1.1291    0.1011 C   0  0  0  0  0  0  0  0  0  0  0  0
   -1.1941    1.7901    0.0845 C   0  0  0  0  0  0  0  0  0  0  0  0
   -1.2309    3.1726    0.1937 C   0  0  0  0  0  0  0  0  0  0  0  0
   -0.0481    3.8888    0.3074 C   0  0  0  0  0  0  0  0  0  0  0  0
    1.1625    3.2235    0.3178 C   0  0  0  0  0  0  0  0  0  0  0  0
    1.1961    1.8451    0.2150 C   0  0  0  0  0  0  0  0  0  0  0  0
    2.5182    1.1219    0.2266 C   0  0  1  0  0  0  0  0  0  0  0  0
    2.3535    0.0755    0.4836 H   0  0  0  0  0  0  0  0  0  0  0  0
    3.1421    1.2053   -1.1410 C   0  0  0  0  0  0  0  0  0  0  0  0
    2.8881    0.2271   -2.1112 C   0  0  0  0  0  0  0  0  0  0  0  0
    2.0626   -0.8777   -1.8341 C   0  0  0  0  0  0  0  0  0  0  0  0
    1.8328   -1.8076   -2.7992 C   0  0  0  0  0  0  0  0  0  0  0  0
    2.4078   -1.6829   -4.0678 C   0  0  0  0  0  0  0  0  0  0  0  0
    3.2158   -0.6241   -4.3703 C   0  0  0  0  0  0  0  0  0  0  0  0
    3.4749    0.3543   -3.3968 C   0  0  0  0  0  0  0  0  0  0  0  0
    4.3041    1.4554   -3.6794 C   0  0  0  0  0  0  0  0  0  0  0  0
    4.5474    2.3880   -2.7211 C   0  0  0  0  0  0  0  0  0  0  0  0
    3.9790    2.2670   -1.4459 C   0  0  0  0  0  0  0  0  0  0  0  0
    4.2550    3.2619   -0.3827 C   0  0  0  0  0  0  0  0  0  0  0  0
    4.8673    4.4760   -0.6628 C   0  0  0  0  0  0  0  0  0  0  0  0
    5.0954    5.3793    0.3562 C   0  0  0  0  0  0  0  0  0  0  0  0
    4.7210    5.0715    1.6580 C   0  0  0  0  0  0  0  0  0  0  0  0
    4.1276    3.8510    1.9476 C   0  0  0  0  0  0  0  0  0  0  0  0
    3.9031    2.9365    0.9349 C   0  0  0  0  0  0  0  0  0  0  0  0
    3.3718    1.7170    1.2027 O   0  0  0  0  0  0  0  0  0  0  0  0
    4.9374    5.9704    2.6536 O   0  0  0  0  0  0  0  0  0  0  0  0
    2.1590   -2.6276   -5.0124 O   0  0  0  0  0  0  0  0  0  0  0  0
   -2.4231    3.8248    0.1828 O   0  0  0  0  0  0  0  0  0  0  0  0
   -3.6000    3.0232    0.0629 C   0  0  0  0  0  0  0  0  0  0  0  0
   -4.8350    3.9263    0.0688 C   0  0  0  0  0  0  0  0  0  0  0  0
   -5.6853    5.9544   -0.9435 C   0  0  0  0  0  0  0  0  0  0  0  0
   -5.5361    6.8908   -2.1447 C   0  0  0  0  0  0  0  0  0  0  0  0
   -5.9274    6.1415   -3.4214 C   0  0  0  0  0  0  0  0  0  0  0  0
   -5.0472    4.8966   -3.5633 C   0  0  0  0  0  0  0  0  0  0  0  0
   -5.2106    4.0180   -2.3210 C   0  0  0  0  0  0  0  0  0  0  0  0
    0.0477    0.0525    0.0206 H   0  0  0  0  0  0  0  0  0  0  0  0
   -2.1132    1.2307   -0.0093 H   0  0  0  0  0  0  0  0  0  0  0  0
   -0.0739    4.9655    0.3880 H   0  0  0  0  0  0  0  0  0  0  0  0
    2.0835    3.7806    0.4059 H   0  0  0  0  0  0  0  0  0  0  0  0
    1.6129   -0.9870   -0.8583 H   0  0  0  0  0  0  0  0  0  0  0  0
    1.1980   -2.6542   -2.5830 H   0  0  0  0  0  0  0  0  0  0  0  0
    3.6533   -0.5395   -5.3541 H   0  0  0  0  0  0  0  0  0  0  0  0
    4.7473    1.5598   -4.6587 H   0  0  0  0  0  0  0  0  0  0  0  0
    5.1847    3.2307   -2.9446 H   0  0  0  0  0  0  0  0  0  0  0  0
    5.1643    4.7129   -1.6738 H   0  0  0  0  0  0  0  0  0  0  0  0
    5.5656    6.3274    0.1406 H   0  0  0  0  0  0  0  0  0  0  0  0
    3.8420    3.6156    2.9622 H   0  0  0  0  0  0  0  0  0  0  0  0
    4.2035    6.5837    2.7962 H   0  0  0  0  0  0  0  0  0  0  0  0
    2.7906   -3.3599   -5.0123 H   0  0  0  0  0  0  0  0  0  0  0  0
   -3.5642    2.4626   -0.8712 H   0  0  0  0  0  0  0  0  0  0  0  0
   -3.6537    2.3289    0.9014 H   0  0  0  0  0  0  0  0  0  0  0  0
   -5.7349    3.3113    0.0673 H   0  0  0  0  0  0  0  0  0  0  0  0
   -4.8237    4.5515    0.9616 H   0  0  0  0  0  0  0  0  0  0  0  0
   -6.7236    5.6333   -0.8600 H   0  0  0  0  0  0  0  0  0  0  0  0
   -5.3937    6.4805   -0.0344 H   0  0  0  0  0  0  0  0  0  0  0  0
   -4.5008    7.2232   -2.2206 H   0  0  0  0  0  0  0  0  0  0  0  0
   -6.1878    7.7549   -2.0156 H   0  0  0  0  0  0  0  0  0  0  0  0
   -5.7813    6.7912   -4.2843 H   0  0  0  0  0  0  0  0  0  0  0  0
   -6.9740    5.8428   -3.3622 H   0  0  0  0  0  0  0  0  0  0  0  0
   -4.0042    5.1976   -3.6616 H   0  0  0  0  0  0  0  0  0  0  0  0
   -5.3497    4.3360   -4.4478 H   0  0  0  0  0  0  0  0  0  0  0  0
   -4.5743    3.1378   -2.4125 H   0  0  0  0  0  0  0  0  0  0  0  0
   -6.2512    3.7062   -2.2311 H   0  0  0  0  0  0  0  0  0  0  0  0
   -4.7948    4.7889   -1.1301 N   0  3  0  0  0  0  0  0  0  0  0  0
   -3.8338    5.1229   -1.2685 H   0  0  0  0  0  0  0  0  0  0  0  0
  1  6  2  0  0  0  0
  1  2  1  0  0  0  0
  1 36  1  0  0  0  0
  2  3  2  0  0  0  0
  2 37  1  0  0  0  0
  3  4  1  0  0  0  0
  3 28  1  0  0  0  0
  4  5  2  0  0  0  0
  4 38  1  0  0  0  0
  5  6  1  0  0  0  0
  5 39  1  0  0  0  0
  6  7  1  0  0  0  0
  7  8  1  0  0  0  0
  7 25  1  0  0  0  0
  7  9  1  0  0  0  0
  9 18  2  0  0  0  0
  9 10  1  0  0  0  0
 10 15  2  0  0  0  0
 10 11  1  0  0  0  0
 11 12  2  0  0  0  0
 11 40  1  0  0  0  0
 12 13  1  0  0  0  0
 12 41  1  0  0  0  0
 13 14  2  0  0  0  0
 13 27  1  0  0  0  0
 14 15  1  0  0  0  0
 14 42  1  0  0  0  0
 15 16  1  0  0  0  0
 16 17  2  0  0  0  0
 16 43  1  0  0  0  0
 17 18  1  0  0  0  0
 17 44  1  0  0  0  0
 18 19  1  0  0  0  0
 19 24  2  0  0  0  0
 19 20  1  0  0  0  0
 20 21  2  0  0  0  0
 20 45  1  0  0  0  0
 21 22  1  0  0  0  0
 21 46  1  0  0  0  0
 22 23  2  0  0  0  0
 22 26  1  0  0  0  0
 23 24  1  0  0  0  0
 23 47  1  0  0  0  0
 24 25  1  0  0  0  0
 26 48  1  0  0  0  0
 27 49  1  0  0  0  0
 28 29  1  0  0  0  0
 29 30  1  0  0  0  0
 29 50  1  0  0  0  0
 29 51  1  0  0  0  0
 30 52  1  0  0  0  0
 30 53  1  0  0  0  0
 30 64  1  0  0  0  0
 31 32  1  0  0  0  0
 31 54  1  0  0  0  0
 31 55  1  0  0  0  0
 31 64  1  0  0  0  0
 32 33  1  0  0  0  0
 32 56  1  0  0  0  0
 32 57  1  0  0  0  0
 33 34  1  0  0  0  0
 33 58  1  0  0  0  0
 33 59  1  0  0  0  0
 34 35  1  0  0  0  0
 34 60  1  0  0  0  0
 34 61  1  0  0  0  0
 35 62  1  0  0  0  0
 35 63  1  0  0  0  0
 35 64  1  0  0  0  0
 64 65  1  0  0  0  0
M  CHG  1  64   1
M  END
$$$$
