ZINC03815454
  -OEChem-08230709403D

 65 69  0     0  0  0  0  0  0999 V2000
    7.7017    0.9802   -1.2862 C   0  0  0  0  0  0  0  0  0  0  0  0
    8.5157   -0.1025   -1.5576 C   0  0  0  0  0  0  0  0  0  0  0  0
    8.3253   -0.8383   -2.7182 C   0  0  0  0  0  0  0  0  0  0  0  0
    7.3137   -0.4880   -3.6006 C   0  0  0  0  0  0  0  0  0  0  0  0
    6.4988    0.5920   -3.3219 C   0  0  0  0  0  0  0  0  0  0  0  0
    6.6906    1.3238   -2.1645 C   0  0  0  0  0  0  0  0  0  0  0  0
    5.8002    2.5016   -1.8629 C   0  0  0  0  0  0  0  0  0  0  0  0
    4.5853    2.0317   -1.1050 C   0  0  0  0  0  0  0  0  0  0  0  0
    3.4125    1.7161   -1.6696 C   0  0  0  0  0  0  0  0  0  0  0  0
    2.4633    1.2947   -0.5722 C   0  0  0  0  0  0  0  0  0  0  0  0
    3.2514    1.4103    0.7099 C   0  0  0  0  0  0  0  0  0  0  0  0
    4.5279    1.8575    0.3538 C   0  0  0  0  0  0  0  0  0  0  0  0
    5.4861    2.0582    1.3542 C   0  0  0  0  0  0  0  0  0  0  0  0
    5.1662    1.8153    2.6719 C   0  0  0  0  0  0  0  0  0  0  0  0
    3.8955    1.3719    3.0146 C   0  0  0  0  0  0  0  0  0  0  0  0
    2.9404    1.1653    2.0256 C   0  0  0  0  0  0  0  0  0  0  0  0
    3.5874    1.1345    4.3164 O   0  0  0  0  0  0  0  0  0  0  0  0
    3.1024    1.7701   -3.1090 C   0  0  0  0  0  0  0  0  0  0  0  0
    3.0498    3.0010   -3.7693 C   0  0  0  0  0  0  0  0  0  0  0  0
    2.7646    3.0459   -5.1167 C   0  0  0  0  0  0  0  0  0  0  0  0
    2.5187    1.8715   -5.8163 C   0  0  0  0  0  0  0  0  0  0  0  0
    2.5645    0.6464   -5.1635 C   0  0  0  0  0  0  0  0  0  0  0  0
    2.8541    0.5909   -3.8174 C   0  0  0  0  0  0  0  0  0  0  0  0
    2.2327    1.9212   -7.1436 O   0  0  0  0  0  0  0  0  0  0  0  0
    9.1280   -1.9006   -2.9899 O   0  0  0  0  0  0  0  0  0  0  0  0
   10.1486   -2.2032   -2.0366 C   0  0  0  0  0  0  0  0  0  0  0  0
   10.9442   -3.4212   -2.5104 C   0  0  0  0  0  0  0  0  0  0  0  0
   12.0230   -4.3096   -4.4871 C   0  0  0  0  0  0  0  0  0  0  0  0
   12.6203   -3.9292   -5.8438 C   0  0  0  0  0  0  0  0  0  0  0  0
   13.8498   -3.0434   -5.6244 C   0  0  0  0  0  0  0  0  0  0  0  0
   13.4407   -1.8060   -4.8207 C   0  0  0  0  0  0  0  0  0  0  0  0
   12.8196   -2.2479   -3.4937 C   0  0  0  0  0  0  0  0  0  0  0  0
    7.8525    1.5562   -0.3852 H   0  0  0  0  0  0  0  0  0  0  0  0
    9.3025   -0.3731   -0.8690 H   0  0  0  0  0  0  0  0  0  0  0  0
    7.1633   -1.0595   -4.5046 H   0  0  0  0  0  0  0  0  0  0  0  0
    5.7110    0.8649   -4.0084 H   0  0  0  0  0  0  0  0  0  0  0  0
    5.4875    2.9692   -2.7966 H   0  0  0  0  0  0  0  0  0  0  0  0
    6.3474    3.2256   -1.2593 H   0  0  0  0  0  0  0  0  0  0  0  0
    1.5996    1.9590   -0.5451 H   0  0  0  0  0  0  0  0  0  0  0  0
    2.1415    0.2648   -0.7270 H   0  0  0  0  0  0  0  0  0  0  0  0
    6.4755    2.4035    1.0932 H   0  0  0  0  0  0  0  0  0  0  0  0
    5.9070    1.9708    3.4423 H   0  0  0  0  0  0  0  0  0  0  0  0
    1.9536    0.8162    2.2918 H   0  0  0  0  0  0  0  0  0  0  0  0
    3.2301    1.9027    4.7824 H   0  0  0  0  0  0  0  0  0  0  0  0
    3.2362    3.9150   -3.2251 H   0  0  0  0  0  0  0  0  0  0  0  0
    2.7279    3.9961   -5.6286 H   0  0  0  0  0  0  0  0  0  0  0  0
    2.3726   -0.2642   -5.7116 H   0  0  0  0  0  0  0  0  0  0  0  0
    2.8896   -0.3622   -3.3106 H   0  0  0  0  0  0  0  0  0  0  0  0
    1.2895    2.0035   -7.3399 H   0  0  0  0  0  0  0  0  0  0  0  0
   10.8177   -1.3485   -1.9369 H   0  0  0  0  0  0  0  0  0  0  0  0
    9.6913   -2.4210   -1.0714 H   0  0  0  0  0  0  0  0  0  0  0  0
   11.6703   -3.7004   -1.7469 H   0  0  0  0  0  0  0  0  0  0  0  0
   10.2633   -4.2540   -2.6862 H   0  0  0  0  0  0  0  0  0  0  0  0
   12.7603   -4.8665   -3.9090 H   0  0  0  0  0  0  0  0  0  0  0  0
   11.1389   -4.9286   -4.6402 H   0  0  0  0  0  0  0  0  0  0  0  0
   11.8787   -3.3843   -6.4280 H   0  0  0  0  0  0  0  0  0  0  0  0
   12.9133   -4.8323   -6.3792 H   0  0  0  0  0  0  0  0  0  0  0  0
   14.2530   -2.7345   -6.5888 H   0  0  0  0  0  0  0  0  0  0  0  0
   14.6080   -3.6008   -5.0742 H   0  0  0  0  0  0  0  0  0  0  0  0
   12.7121   -1.2276   -5.3888 H   0  0  0  0  0  0  0  0  0  0  0  0
   14.3200   -1.1924   -4.6245 H   0  0  0  0  0  0  0  0  0  0  0  0
   12.5142   -1.3695   -2.9252 H   0  0  0  0  0  0  0  0  0  0  0  0
   13.5534   -2.8145   -2.9203 H   0  0  0  0  0  0  0  0  0  0  0  0
   11.6277   -3.0762   -3.7741 N   0  3  0  0  0  0  0  0  0  0  0  0
   10.9823   -2.5412   -4.3669 H   0  0  0  0  0  0  0  0  0  0  0  0
  1  6  2  0  0  0  0
  1  2  1  0  0  0  0
  1 33  1  0  0  0  0
  2  3  2  0  0  0  0
  2 34  1  0  0  0  0
  3  4  1  0  0  0  0
  3 25  1  0  0  0  0
  4  5  2  0  0  0  0
  4 35  1  0  0  0  0
  5  6  1  0  0  0  0
  5 36  1  0  0  0  0
  6  7  1  0  0  0  0
  7  8  1  0  0  0  0
  7 37  1  0  0  0  0
  7 38  1  0  0  0  0
  8 12  1  0  0  0  0
  8  9  2  0  0  0  0
  9 10  1  0  0  0  0
  9 18  1  0  0  0  0
 10 11  1  0  0  0  0
 10 39  1  0  0  0  0
 10 40  1  0  0  0  0
 11 16  2  0  0  0  0
 11 12  1  0  0  0  0
 12 13  2  0  0  0  0
 13 14  1  0  0  0  0
 13 41  1  0  0  0  0
 14 15  2  0  0  0  0
 14 42  1  0  0  0  0
 15 16  1  0  0  0  0
 15 17  1  0  0  0  0
 16 43  1  0  0  0  0
 17 44  1  0  0  0  0
 18 23  2  0  0  0  0
 18 19  1  0  0  0  0
 19 20  2  0  0  0  0
 19 45  1  0  0  0  0
 20 21  1  0  0  0  0
 20 46  1  0  0  0  0
 21 22  2  0  0  0  0
 21 24  1  0  0  0  0
 22 23  1  0  0  0  0
 22 47  1  0  0  0  0
 23 48  1  0  0  0  0
 24 49  1  0  0  0  0
 25 26  1  0  0  0  0
 26 27  1  0  0  0  0
 26 50  1  0  0  0  0
 26 51  1  0  0  0  0
 27 52  1  0  0  0  0
 27 53  1  0  0  0  0
 27 64  1  0  0  0  0
 28 29  1  0  0  0  0
 28 54  1  0  0  0  0
 28 55  1  0  0  0  0
 28 64  1  0  0  0  0
 29 30  1  0  0  0  0
 29 56  1  0  0  0  0
 29 57  1  0  0  0  0
 30 31  1  0  0  0  0
 30 58  1  0  0  0  0
 30 59  1  0  0  0  0
 31 32  1  0  0  0  0
 31 60  1  0  0  0  0
 31 61  1  0  0  0  0
 32 62  1  0  0  0  0
 32 63  1  0  0  0  0
 32 64  1  0  0  0  0
 64 65  1  0  0  0  0
M  CHG  1  64   1
M  END
$$$$
