ZINC03815477
  -OEChem-08230709403D

 61 65  0     0  0  0  0  0  0999 V2000
    2.2561    3.7100   -4.3175 C   0  0  0  0  0  0  0  0  0  0  0  0
    3.3713    3.9997   -3.5506 C   0  0  0  0  0  0  0  0  0  0  0  0
    3.7198    3.1810   -2.4974 C   0  0  0  0  0  0  0  0  0  0  0  0
    2.9429    2.0550   -2.2049 C   0  0  0  0  0  0  0  0  0  0  0  0
    1.8206    1.7660   -2.9885 C   0  0  0  0  0  0  0  0  0  0  0  0
    1.4825    2.5976   -4.0350 C   0  0  0  0  0  0  0  0  0  0  0  0
    3.3074    1.1765   -1.0834 C   0  0  0  0  0  0  0  0  0  0  0  0
    2.4788    1.0718   -0.0158 C   0  0  0  0  0  0  0  0  0  0  0  0
    2.8832    0.2357    1.1356 C   0  0  0  0  0  0  0  0  0  0  0  0
    1.9449   -0.1729    2.0822 C   0  0  0  0  0  0  0  0  0  0  0  0
    2.3402   -0.9655    3.1393 C   0  0  0  0  0  0  0  0  0  0  0  0
    3.6679   -1.3557    3.2586 C   0  0  0  0  0  0  0  0  0  0  0  0
    4.6005   -0.9528    2.3173 C   0  0  0  0  0  0  0  0  0  0  0  0
    4.2163   -0.1513    1.2642 C   0  0  0  0  0  0  0  0  0  0  0  0
    5.2300    0.3189    0.2546 C   0  0  0  0  0  0  0  0  0  0  0  0
    4.5968    0.4027   -1.1315 C   0  0  0  0  0  0  0  0  0  0  0  0
    4.0509   -2.1431    4.2973 O   0  0  0  0  0  0  0  0  0  0  0  0
    1.1862    1.7911    0.0004 C   0  0  0  0  0  0  0  0  0  0  0  0
   -0.0126    1.0758    0.0080 C   0  0  0  0  0  0  0  0  0  0  0  0
   -1.2150    1.7496    0.0173 C   0  0  0  0  0  0  0  0  0  0  0  0
   -1.2348    3.1382    0.0297 C   0  0  0  0  0  0  0  0  0  0  0  0
   -0.0443    3.8534    0.0222 C   0  0  0  0  0  0  0  0  0  0  0  0
    1.1621    3.1868    0.0076 C   0  0  0  0  0  0  0  0  0  0  0  0
   -2.4219    3.7988    0.0442 O   0  0  0  0  0  0  0  0  0  0  0  0
   -3.6079    3.0016    0.0512 C   0  0  0  0  0  0  0  0  0  0  0  0
   -4.8358    3.9143    0.0673 C   0  0  0  0  0  0  0  0  0  0  0  0
   -4.8058    3.7847   -2.3638 C   0  0  0  0  0  0  0  0  0  0  0  0
   -5.3948    4.6469   -3.5085 C   0  0  0  0  0  0  0  0  0  0  0  0
   -6.5397    5.4148   -2.8089 C   0  0  0  0  0  0  0  0  0  0  0  0
   -6.1812    5.3947   -1.3114 C   0  0  0  0  0  0  0  0  0  0  0  0
    1.9884    4.3553   -5.1412 H   0  0  0  0  0  0  0  0  0  0  0  0
    3.9698    4.8696   -3.7775 H   0  0  0  0  0  0  0  0  0  0  0  0
    4.5904    3.4082   -1.9000 H   0  0  0  0  0  0  0  0  0  0  0  0
    1.2186    0.8959   -2.7720 H   0  0  0  0  0  0  0  0  0  0  0  0
    0.6143    2.3780   -4.6386 H   0  0  0  0  0  0  0  0  0  0  0  0
    0.9125    0.1298    1.9879 H   0  0  0  0  0  0  0  0  0  0  0  0
    1.6164   -1.2836    3.8751 H   0  0  0  0  0  0  0  0  0  0  0  0
    5.6319   -1.2577    2.4160 H   0  0  0  0  0  0  0  0  0  0  0  0
    6.0648   -0.3816    0.2283 H   0  0  0  0  0  0  0  0  0  0  0  0
    5.5947    1.3041    0.5450 H   0  0  0  0  0  0  0  0  0  0  0  0
    4.3971   -0.6048   -1.4963 H   0  0  0  0  0  0  0  0  0  0  0  0
    5.2884    0.8999   -1.8117 H   0  0  0  0  0  0  0  0  0  0  0  0
    3.9938   -3.0909    4.1143 H   0  0  0  0  0  0  0  0  0  0  0  0
    0.0021   -0.0041    0.0020 H   0  0  0  0  0  0  0  0  0  0  0  0
   -2.1429    1.1970    0.0187 H   0  0  0  0  0  0  0  0  0  0  0  0
   -0.0638    4.9332    0.0275 H   0  0  0  0  0  0  0  0  0  0  0  0
    2.0875    3.7436    0.0014 H   0  0  0  0  0  0  0  0  0  0  0  0
   -3.6311    2.3770   -0.8417 H   0  0  0  0  0  0  0  0  0  0  0  0
   -3.6145    2.3680    0.9381 H   0  0  0  0  0  0  0  0  0  0  0  0
   -5.7372    3.3089    0.1622 H   0  0  0  0  0  0  0  0  0  0  0  0
   -4.7679    4.5999    0.9120 H   0  0  0  0  0  0  0  0  0  0  0  0
   -3.7687    3.5231   -2.5738 H   0  0  0  0  0  0  0  0  0  0  0  0
   -5.4061    2.8881   -2.2095 H   0  0  0  0  0  0  0  0  0  0  0  0
   -5.7853    4.0146   -4.3059 H   0  0  0  0  0  0  0  0  0  0  0  0
   -4.6462    5.3385   -3.8949 H   0  0  0  0  0  0  0  0  0  0  0  0
   -7.4914    4.9105   -2.9769 H   0  0  0  0  0  0  0  0  0  0  0  0
   -6.5849    6.4410   -3.1734 H   0  0  0  0  0  0  0  0  0  0  0  0
   -6.9537    4.8672   -0.7517 H   0  0  0  0  0  0  0  0  0  0  0  0
   -6.0807    6.4145   -0.9400 H   0  0  0  0  0  0  0  0  0  0  0  0
   -4.9028    4.6898   -1.2078 N   0  3  0  0  0  0  0  0  0  0  0  0
   -4.1309    5.3664   -1.2313 H   0  0  0  0  0  0  0  0  0  0  0  0
  1  6  2  0  0  0  0
  1  2  1  0  0  0  0
  1 31  1  0  0  0  0
  2  3  2  0  0  0  0
  2 32  1  0  0  0  0
  3  4  1  0  0  0  0
  3 33  1  0  0  0  0
  4  5  2  0  0  0  0
  4  7  1  0  0  0  0
  5  6  1  0  0  0  0
  5 34  1  0  0  0  0
  6 35  1  0  0  0  0
  7 16  1  0  0  0  0
  7  8  2  0  0  0  0
  8  9  1  0  0  0  0
  8 18  1  0  0  0  0
  9 14  2  0  0  0  0
  9 10  1  0  0  0  0
 10 11  2  0  0  0  0
 10 36  1  0  0  0  0
 11 12  1  0  0  0  0
 11 37  1  0  0  0  0
 12 13  2  0  0  0  0
 12 17  1  0  0  0  0
 13 14  1  0  0  0  0
 13 38  1  0  0  0  0
 14 15  1  0  0  0  0
 15 16  1  0  0  0  0
 15 39  1  0  0  0  0
 15 40  1  0  0  0  0
 16 41  1  0  0  0  0
 16 42  1  0  0  0  0
 17 43  1  0  0  0  0
 18 23  2  0  0  0  0
 18 19  1  0  0  0  0
 19 20  2  0  0  0  0
 19 44  1  0  0  0  0
 20 21  1  0  0  0  0
 20 45  1  0  0  0  0
 21 22  2  0  0  0  0
 21 24  1  0  0  0  0
 22 23  1  0  0  0  0
 22 46  1  0  0  0  0
 23 47  1  0  0  0  0
 24 25  1  0  0  0  0
 25 26  1  0  0  0  0
 25 48  1  0  0  0  0
 25 49  1  0  0  0  0
 26 50  1  0  0  0  0
 26 51  1  0  0  0  0
 26 60  1  0  0  0  0
 27 28  1  0  0  0  0
 27 52  1  0  0  0  0
 27 53  1  0  0  0  0
 27 60  1  0  0  0  0
 28 29  1  0  0  0  0
 28 54  1  0  0  0  0
 28 55  1  0  0  0  0
 29 30  1  0  0  0  0
 29 56  1  0  0  0  0
 29 57  1  0  0  0  0
 30 58  1  0  0  0  0
 30 59  1  0  0  0  0
 30 60  1  0  0  0  0
 60 61  1  0  0  0  0
M  CHG  1  60   1
M  END
$$$$
