ZINC01545572
  -OEChem-08230709403D

 67 72  0     0  0  0  0  0  0999 V2000
    1.8720    6.3870    7.2755 C   0  0  0  0  0  0  0  0  0  0  0  0
    0.7207    5.8432    6.7090 C   0  0  0  0  0  0  0  0  0  0  0  0
    0.3742    6.1228    5.4230 C   0  0  0  0  0  0  0  0  0  0  0  0
    1.1936    6.9638    4.6484 C   0  0  0  0  0  0  0  0  0  0  0  0
    0.8681    7.2683    3.3184 C   0  0  0  0  0  0  0  0  0  0  0  0
    1.7004    8.1016    2.5869 C   0  0  0  0  0  0  0  0  0  0  0  0
    2.8631    8.6399    3.1698 C   0  0  0  0  0  0  0  0  0  0  0  0
    3.1924    8.3554    4.4549 C   0  0  0  0  0  0  0  0  0  0  0  0
    2.3679    7.5127    5.2235 C   0  0  0  0  0  0  0  0  0  0  0  0
    2.6888    7.2049    6.5560 C   0  0  0  0  0  0  0  0  0  0  0  0
    1.3653    8.4261    1.1878 C   0  0  0  0  0  0  0  0  0  0  0  0
    2.1904    8.3813    0.0721 C   0  0  0  0  0  0  0  0  0  0  0  0
    1.6155    8.7551   -1.2222 C   0  0  0  0  0  0  0  0  0  0  0  0
    2.2508    8.7868   -2.4843 C   0  0  0  0  0  0  0  0  0  0  0  0
    1.5690    9.1603   -3.6001 C   0  0  0  0  0  0  0  0  0  0  0  0
    0.2266    9.5240   -3.5407 C   0  0  0  0  0  0  0  0  0  0  0  0
   -0.4287    9.5047   -2.3198 C   0  0  0  0  0  0  0  0  0  0  0  0
    0.2580    9.1262   -1.1851 C   0  0  0  0  0  0  0  0  0  0  0  0
   -0.1979    8.9624    0.5217 S   0  0  0  0  0  0  0  0  0  0  0  0
   -0.4349    9.8940   -4.6691 O   0  0  0  0  0  0  0  0  0  0  0  0
    3.5915    7.9735    0.1858 C   0  0  0  0  0  0  0  0  0  0  0  0
    4.4505    8.8045    0.4205 O   0  0  0  0  0  0  0  0  0  0  0  0
    3.9638    6.5544    0.0161 C   0  0  0  0  0  0  0  0  0  0  0  0
    2.9967    5.6159   -0.3538 C   0  0  0  0  0  0  0  0  0  0  0  0
    3.3488    4.2945   -0.5157 C   0  0  0  0  0  0  0  0  0  0  0  0
    4.6619    3.8919   -0.3015 C   0  0  0  0  0  0  0  0  0  0  0  0
    5.6257    4.8215    0.0716 C   0  0  0  0  0  0  0  0  0  0  0  0
    5.2827    6.1456    0.2305 C   0  0  0  0  0  0  0  0  0  0  0  0
    5.0038    2.5876   -0.4566 O   0  0  0  0  0  0  0  0  0  0  0  0
    3.9453    1.6678   -0.7318 C   0  0  0  0  0  0  0  0  0  0  0  0
    4.5016    0.2427   -0.7561 C   0  0  0  0  0  0  0  0  0  0  0  0
    5.9533   -1.2323    0.4998 C   0  0  0  0  0  0  0  0  0  0  0  0
    6.5763   -1.4725    1.8768 C   0  0  0  0  0  0  0  0  0  0  0  0
    5.4669   -1.7751    2.8879 C   0  0  0  0  0  0  0  0  0  0  0  0
    4.4769   -0.6072    2.9121 C   0  0  0  0  0  0  0  0  0  0  0  0
    3.9147   -0.3922    1.5051 C   0  0  0  0  0  0  0  0  0  0  0  0
    2.1226    6.1526    8.2995 H   0  0  0  0  0  0  0  0  0  0  0  0
    0.0922    5.1939    7.3005 H   0  0  0  0  0  0  0  0  0  0  0  0
   -0.5233    5.6980    4.9981 H   0  0  0  0  0  0  0  0  0  0  0  0
   -0.0230    6.8568    2.8679 H   0  0  0  0  0  0  0  0  0  0  0  0
    3.5010    9.2877    2.5868 H   0  0  0  0  0  0  0  0  0  0  0  0
    4.0878    8.7759    4.8883 H   0  0  0  0  0  0  0  0  0  0  0  0
    3.5800    7.6150    7.0077 H   0  0  0  0  0  0  0  0  0  0  0  0
    3.2917    8.5102   -2.5638 H   0  0  0  0  0  0  0  0  0  0  0  0
    2.0795    9.1754   -4.5517 H   0  0  0  0  0  0  0  0  0  0  0  0
   -1.4701    9.7842   -2.2573 H   0  0  0  0  0  0  0  0  0  0  0  0
   -0.8602    9.1605   -5.1340 H   0  0  0  0  0  0  0  0  0  0  0  0
    1.9754    5.9272   -0.5164 H   0  0  0  0  0  0  0  0  0  0  0  0
    2.6030    3.5693   -0.8059 H   0  0  0  0  0  0  0  0  0  0  0  0
    6.6449    4.5048    0.2368 H   0  0  0  0  0  0  0  0  0  0  0  0
    6.0322    6.8673    0.5200 H   0  0  0  0  0  0  0  0  0  0  0  0
    3.1839    1.7474    0.0441 H   0  0  0  0  0  0  0  0  0  0  0  0
    3.5032    1.9019   -1.7002 H   0  0  0  0  0  0  0  0  0  0  0  0
    3.7087   -0.4521   -1.0330 H   0  0  0  0  0  0  0  0  0  0  0  0
    5.3099    0.1806   -1.4847 H   0  0  0  0  0  0  0  0  0  0  0  0
    5.4202   -2.1281    0.1811 H   0  0  0  0  0  0  0  0  0  0  0  0
    6.7394   -1.0026   -0.2195 H   0  0  0  0  0  0  0  0  0  0  0  0
    7.1212   -0.5819    2.1900 H   0  0  0  0  0  0  0  0  0  0  0  0
    7.2615   -2.3186    1.8243 H   0  0  0  0  0  0  0  0  0  0  0  0
    5.9024   -1.9041    3.8787 H   0  0  0  0  0  0  0  0  0  0  0  0
    4.9467   -2.6877    2.5970 H   0  0  0  0  0  0  0  0  0  0  0  0
    4.9887    0.2970    3.2416 H   0  0  0  0  0  0  0  0  0  0  0  0
    3.6617   -0.8354    3.5987 H   0  0  0  0  0  0  0  0  0  0  0  0
    3.2202    0.4478    1.5160 H   0  0  0  0  0  0  0  0  0  0  0  0
    3.3913   -1.2920    1.1818 H   0  0  0  0  0  0  0  0  0  0  0  0
    5.0297   -0.0812    0.5853 N   0  3  0  0  0  0  0  0  0  0  0  0
    5.5428    0.7313    0.9467 H   0  0  0  0  0  0  0  0  0  0  0  0
  1 10  2  0  0  0  0
  1  2  1  0  0  0  0
  1 37  1  0  0  0  0
  2  3  2  0  0  0  0
  2 38  1  0  0  0  0
  3  4  1  0  0  0  0
  3 39  1  0  0  0  0
  4  9  2  0  0  0  0
  4  5  1  0  0  0  0
  5  6  2  0  0  0  0
  5 40  1  0  0  0  0
  6  7  1  0  0  0  0
  6 11  1  0  0  0  0
  7  8  2  0  0  0  0
  7 41  1  0  0  0  0
  8  9  1  0  0  0  0
  8 42  1  0  0  0  0
  9 10  1  0  0  0  0
 10 43  1  0  0  0  0
 11 19  1  0  0  0  0
 11 12  2  0  0  0  0
 12 13  1  0  0  0  0
 12 21  1  0  0  0  0
 13 18  2  0  0  0  0
 13 14  1  0  0  0  0
 14 15  2  0  0  0  0
 14 44  1  0  0  0  0
 15 16  1  0  0  0  0
 15 45  1  0  0  0  0
 16 17  2  0  0  0  0
 16 20  1  0  0  0  0
 17 18  1  0  0  0  0
 17 46  1  0  0  0  0
 18 19  1  0  0  0  0
 20 47  1  0  0  0  0
 21 22  2  0  0  0  0
 21 23  1  0  0  0  0
 23 28  2  0  0  0  0
 23 24  1  0  0  0  0
 24 25  2  0  0  0  0
 24 48  1  0  0  0  0
 25 26  1  0  0  0  0
 25 49  1  0  0  0  0
 26 27  2  0  0  0  0
 26 29  1  0  0  0  0
 27 28  1  0  0  0  0
 27 50  1  0  0  0  0
 28 51  1  0  0  0  0
 29 30  1  0  0  0  0
 30 31  1  0  0  0  0
 30 52  1  0  0  0  0
 30 53  1  0  0  0  0
 31 54  1  0  0  0  0
 31 55  1  0  0  0  0
 31 66  1  0  0  0  0
 32 33  1  0  0  0  0
 32 56  1  0  0  0  0
 32 57  1  0  0  0  0
 32 66  1  0  0  0  0
 33 34  1  0  0  0  0
 33 58  1  0  0  0  0
 33 59  1  0  0  0  0
 34 35  1  0  0  0  0
 34 60  1  0  0  0  0
 34 61  1  0  0  0  0
 35 36  1  0  0  0  0
 35 62  1  0  0  0  0
 35 63  1  0  0  0  0
 36 64  1  0  0  0  0
 36 65  1  0  0  0  0
 36 66  1  0  0  0  0
 66 67  1  0  0  0  0
M  CHG  1  66   1
M  END
$$$$
