ZINC03815452
  -OEChem-08230709403D

 64 68  0     0  0  0  0  0  0999 V2000
    3.0367   -2.5290    5.2273 C   0  0  0  0  0  0  0  0  0  0  0  0
    4.0511   -2.1419    4.2982 O   0  0  0  0  0  0  0  0  0  0  0  0
    3.6680   -1.3552    3.2590 C   0  0  0  0  0  0  0  0  0  0  0  0
    2.3402   -0.9653    3.1394 C   0  0  0  0  0  0  0  0  0  0  0  0
    1.9449   -0.1726    2.0824 C   0  0  0  0  0  0  0  0  0  0  0  0
    2.8832    0.2356    1.1355 C   0  0  0  0  0  0  0  0  0  0  0  0
    4.2159   -0.1523    1.2638 C   0  0  0  0  0  0  0  0  0  0  0  0
    4.5999   -0.9541    2.3167 C   0  0  0  0  0  0  0  0  0  0  0  0
    5.2298    0.3178    0.2543 C   0  0  0  0  0  0  0  0  0  0  0  0
    4.5965    0.4023   -1.1318 C   0  0  0  0  0  0  0  0  0  0  0  0
    3.3074    1.1765   -1.0834 C   0  0  0  0  0  0  0  0  0  0  0  0
    2.4788    1.0718   -0.0158 C   0  0  0  0  0  0  0  0  0  0  0  0
    1.1862    1.7911    0.0004 C   0  0  0  0  0  0  0  0  0  0  0  0
   -0.0126    1.0758    0.0080 C   0  0  0  0  0  0  0  0  0  0  0  0
   -1.2150    1.7496    0.0173 C   0  0  0  0  0  0  0  0  0  0  0  0
   -1.2348    3.1382    0.0297 C   0  0  0  0  0  0  0  0  0  0  0  0
   -0.0443    3.8534    0.0222 C   0  0  0  0  0  0  0  0  0  0  0  0
    1.1621    3.1868    0.0076 C   0  0  0  0  0  0  0  0  0  0  0  0
   -2.4219    3.7988    0.0442 O   0  0  0  0  0  0  0  0  0  0  0  0
   -3.6079    3.0016    0.0512 C   0  0  0  0  0  0  0  0  0  0  0  0
   -4.8358    3.9143    0.0673 C   0  0  0  0  0  0  0  0  0  0  0  0
   -4.8058    3.7847   -2.3638 C   0  0  0  0  0  0  0  0  0  0  0  0
   -5.3948    4.6469   -3.5085 C   0  0  0  0  0  0  0  0  0  0  0  0
   -6.5397    5.4148   -2.8089 C   0  0  0  0  0  0  0  0  0  0  0  0
   -6.1812    5.3947   -1.3114 C   0  0  0  0  0  0  0  0  0  0  0  0
    2.9432    2.0554   -2.2046 C   0  0  0  0  0  0  0  0  0  0  0  0
    1.8208    1.7670   -2.9883 C   0  0  0  0  0  0  0  0  0  0  0  0
    1.4829    2.5991   -4.0345 C   0  0  0  0  0  0  0  0  0  0  0  0
    2.2569    3.7113   -4.3168 C   0  0  0  0  0  0  0  0  0  0  0  0
    3.3722    4.0004   -3.5498 C   0  0  0  0  0  0  0  0  0  0  0  0
    3.7205    3.1813   -2.4969 C   0  0  0  0  0  0  0  0  0  0  0  0
    2.2611   -3.0898    4.7057 H   0  0  0  0  0  0  0  0  0  0  0  0
    3.4758   -3.1535    6.0053 H   0  0  0  0  0  0  0  0  0  0  0  0
    2.5995   -1.6388    5.6795 H   0  0  0  0  0  0  0  0  0  0  0  0
    1.6165   -1.2831    3.8754 H   0  0  0  0  0  0  0  0  0  0  0  0
    0.9126    0.1305    1.9883 H   0  0  0  0  0  0  0  0  0  0  0  0
    5.6312   -1.2593    2.4153 H   0  0  0  0  0  0  0  0  0  0  0  0
    6.0643   -0.3829    0.2278 H   0  0  0  0  0  0  0  0  0  0  0  0
    5.5948    1.3029    0.5449 H   0  0  0  0  0  0  0  0  0  0  0  0
    4.3965   -0.6051   -1.4968 H   0  0  0  0  0  0  0  0  0  0  0  0
    5.2883    0.8994   -1.8118 H   0  0  0  0  0  0  0  0  0  0  0  0
    0.0021   -0.0041    0.0020 H   0  0  0  0  0  0  0  0  0  0  0  0
   -2.1429    1.1970    0.0187 H   0  0  0  0  0  0  0  0  0  0  0  0
   -0.0638    4.9332    0.0275 H   0  0  0  0  0  0  0  0  0  0  0  0
    2.0875    3.7436    0.0014 H   0  0  0  0  0  0  0  0  0  0  0  0
   -3.6311    2.3770   -0.8417 H   0  0  0  0  0  0  0  0  0  0  0  0
   -3.6145    2.3680    0.9381 H   0  0  0  0  0  0  0  0  0  0  0  0
   -5.7372    3.3089    0.1622 H   0  0  0  0  0  0  0  0  0  0  0  0
   -4.7679    4.5999    0.9120 H   0  0  0  0  0  0  0  0  0  0  0  0
   -3.7687    3.5231   -2.5738 H   0  0  0  0  0  0  0  0  0  0  0  0
   -5.4061    2.8881   -2.2095 H   0  0  0  0  0  0  0  0  0  0  0  0
   -5.7853    4.0146   -4.3059 H   0  0  0  0  0  0  0  0  0  0  0  0
   -4.6462    5.3385   -3.8949 H   0  0  0  0  0  0  0  0  0  0  0  0
   -7.4914    4.9105   -2.9769 H   0  0  0  0  0  0  0  0  0  0  0  0
   -6.5849    6.4410   -3.1734 H   0  0  0  0  0  0  0  0  0  0  0  0
   -6.9537    4.8672   -0.7517 H   0  0  0  0  0  0  0  0  0  0  0  0
   -6.0807    6.4145   -0.9400 H   0  0  0  0  0  0  0  0  0  0  0  0
    1.2184    0.8971   -2.7720 H   0  0  0  0  0  0  0  0  0  0  0  0
    0.6146    2.3799   -4.6382 H   0  0  0  0  0  0  0  0  0  0  0  0
    1.9894    4.3568   -5.1403 H   0  0  0  0  0  0  0  0  0  0  0  0
    3.9710    4.8701   -3.7765 H   0  0  0  0  0  0  0  0  0  0  0  0
    4.5912    3.4080   -1.8995 H   0  0  0  0  0  0  0  0  0  0  0  0
   -4.9028    4.6898   -1.2078 N   0  3  0  0  0  0  0  0  0  0  0  0
   -4.1309    5.3664   -1.2313 H   0  0  0  0  0  0  0  0  0  0  0  0
  1  2  1  0  0  0  0
  1 32  1  0  0  0  0
  1 33  1  0  0  0  0
  1 34  1  0  0  0  0
  2  3  1  0  0  0  0
  3  8  2  0  0  0  0
  3  4  1  0  0  0  0
  4  5  2  0  0  0  0
  4 35  1  0  0  0  0
  5  6  1  0  0  0  0
  5 36  1  0  0  0  0
  6 12  1  0  0  0  0
  6  7  2  0  0  0  0
  7  8  1  0  0  0  0
  7  9  1  0  0  0  0
  8 37  1  0  0  0  0
  9 10  1  0  0  0  0
  9 38  1  0  0  0  0
  9 39  1  0  0  0  0
 10 11  1  0  0  0  0
 10 40  1  0  0  0  0
 10 41  1  0  0  0  0
 11 12  2  0  0  0  0
 11 26  1  0  0  0  0
 12 13  1  0  0  0  0
 13 18  2  0  0  0  0
 13 14  1  0  0  0  0
 14 15  2  0  0  0  0
 14 42  1  0  0  0  0
 15 16  1  0  0  0  0
 15 43  1  0  0  0  0
 16 17  2  0  0  0  0
 16 19  1  0  0  0  0
 17 18  1  0  0  0  0
 17 44  1  0  0  0  0
 18 45  1  0  0  0  0
 19 20  1  0  0  0  0
 20 21  1  0  0  0  0
 20 46  1  0  0  0  0
 20 47  1  0  0  0  0
 21 48  1  0  0  0  0
 21 49  1  0  0  0  0
 21 63  1  0  0  0  0
 22 23  1  0  0  0  0
 22 50  1  0  0  0  0
 22 51  1  0  0  0  0
 22 63  1  0  0  0  0
 23 24  1  0  0  0  0
 23 52  1  0  0  0  0
 23 53  1  0  0  0  0
 24 25  1  0  0  0  0
 24 54  1  0  0  0  0
 24 55  1  0  0  0  0
 25 56  1  0  0  0  0
 25 57  1  0  0  0  0
 25 63  1  0  0  0  0
 26 31  2  0  0  0  0
 26 27  1  0  0  0  0
 27 28  2  0  0  0  0
 27 58  1  0  0  0  0
 28 29  1  0  0  0  0
 28 59  1  0  0  0  0
 29 30  2  0  0  0  0
 29 60  1  0  0  0  0
 30 31  1  0  0  0  0
 30 61  1  0  0  0  0
 31 62  1  0  0  0  0
 63 64  1  0  0  0  0
M  CHG  1  63   1
M  END
$$$$
