ZINC03815465
  -OEChem-08230709403D

 67 71  0     0  0  0  0  0  0999 V2000
    4.3049   -1.6883   -5.7467 C   0  0  0  0  0  0  0  0  0  0  0  0
    4.5937   -3.1505   -5.9694 C   0  0  0  0  0  0  0  0  0  0  0  0
    5.0526   -3.5845   -7.1952 C   0  0  0  0  0  0  0  0  0  0  0  0
    5.3189   -4.9314   -7.4012 C   0  0  0  0  0  0  0  0  0  0  0  0
    5.1241   -5.8456   -6.3740 C   0  0  0  0  0  0  0  0  0  0  0  0
    4.6702   -5.4172   -5.1449 C   0  0  0  0  0  0  0  0  0  0  0  0
    4.3968   -4.0658   -4.9366 C   0  0  0  0  0  0  0  0  0  0  0  0
    3.9035   -3.6024   -3.6172 C   0  0  0  0  0  0  0  0  0  0  0  0
    2.8680   -4.2871   -2.9914 C   0  0  0  0  0  0  0  0  0  0  0  0
    2.4117   -3.8405   -1.7490 C   0  0  0  0  0  0  0  0  0  0  0  0
    3.0187   -2.7177   -1.1839 C   0  0  0  0  0  0  0  0  0  0  0  0
    4.0484   -2.0868   -1.8709 C   0  0  0  0  0  0  0  0  0  0  0  0
    4.6590   -0.9678   -1.3159 N   0  0  0  0  0  0  0  0  0  0  0  0
    5.8685   -0.4136   -1.9292 C   0  0  0  0  0  0  0  0  0  0  0  0
    7.1035   -1.0085   -1.2495 C   0  0  0  0  0  0  0  0  0  0  0  0
    8.3442   -0.3542   -1.8005 C   0  0  0  0  0  0  0  0  0  0  0  0
    9.0334   -0.9464   -2.8422 C   0  0  0  0  0  0  0  0  0  0  0  0
   10.1686   -0.3435   -3.3511 C   0  0  0  0  0  0  0  0  0  0  0  0
   10.6206    0.8459   -2.8110 C   0  0  0  0  0  0  0  0  0  0  0  0
    9.9346    1.4352   -1.7655 C   0  0  0  0  0  0  0  0  0  0  0  0
    8.7963    0.8352   -1.2604 C   0  0  0  0  0  0  0  0  0  0  0  0
    4.0929   -0.3429   -0.1179 C   0  0  0  0  0  0  0  0  0  0  0  0
    3.0983    0.7136   -0.5247 C   0  0  0  0  0  0  0  0  0  0  0  0
    1.7679    0.3804   -0.6979 C   0  0  0  0  0  0  0  0  0  0  0  0
    0.8556    1.3494   -1.0715 C   0  0  0  0  0  0  0  0  0  0  0  0
    1.2737    2.6517   -1.2720 C   0  0  0  0  0  0  0  0  0  0  0  0
    2.6040    2.9850   -1.0984 C   0  0  0  0  0  0  0  0  0  0  0  0
    3.5164    2.0159   -0.7252 C   0  0  0  0  0  0  0  0  0  0  0  0
    1.3083   -4.5423   -1.0473 C   0  0  0  0  0  0  0  0  0  0  0  0
    0.8681   -4.0874    0.1940 C   0  0  0  0  0  0  0  0  0  0  0  0
   -0.1626   -4.7402    0.8394 C   0  0  0  0  0  0  0  0  0  0  0  0
   -0.7504   -5.8511    0.2616 C   0  0  0  0  0  0  0  0  0  0  0  0
   -0.3131   -6.3106   -0.9676 C   0  0  0  0  0  0  0  0  0  0  0  0
    0.7127   -5.6618   -1.6247 C   0  0  0  0  0  0  0  0  0  0  0  0
    5.7712   -5.3559   -8.6097 O   0  0  0  0  0  0  0  0  0  0  0  0
    5.2062   -1.1902   -5.3893 H   0  0  0  0  0  0  0  0  0  0  0  0
    3.9864   -1.2338   -6.6848 H   0  0  0  0  0  0  0  0  0  0  0  0
    3.5133   -1.5832   -5.0048 H   0  0  0  0  0  0  0  0  0  0  0  0
    5.2053   -2.8758   -7.9958 H   0  0  0  0  0  0  0  0  0  0  0  0
    5.3321   -6.8928   -6.5372 H   0  0  0  0  0  0  0  0  0  0  0  0
    4.5229   -6.1280   -4.3452 H   0  0  0  0  0  0  0  0  0  0  0  0
    2.4227   -5.1527   -3.4593 H   0  0  0  0  0  0  0  0  0  0  0  0
    2.6922   -2.3443   -0.2246 H   0  0  0  0  0  0  0  0  0  0  0  0
    5.8836   -0.6607   -2.9907 H   0  0  0  0  0  0  0  0  0  0  0  0
    5.8736    0.6697   -1.8082 H   0  0  0  0  0  0  0  0  0  0  0  0
    7.0468   -0.8332   -0.1752 H   0  0  0  0  0  0  0  0  0  0  0  0
    7.1425   -2.0808   -1.4412 H   0  0  0  0  0  0  0  0  0  0  0  0
    8.6827   -1.8780   -3.2612 H   0  0  0  0  0  0  0  0  0  0  0  0
   10.7043   -0.8038   -4.1681 H   0  0  0  0  0  0  0  0  0  0  0  0
   11.5096    1.3150   -3.2060 H   0  0  0  0  0  0  0  0  0  0  0  0
   10.2879    2.3645   -1.3435 H   0  0  0  0  0  0  0  0  0  0  0  0
    8.2603    1.2956   -0.4436 H   0  0  0  0  0  0  0  0  0  0  0  0
    4.8919    0.1154    0.4649 H   0  0  0  0  0  0  0  0  0  0  0  0
    3.5921   -1.1005    0.4849 H   0  0  0  0  0  0  0  0  0  0  0  0
    1.4413   -0.6371   -0.5416 H   0  0  0  0  0  0  0  0  0  0  0  0
   -0.1837    1.0890   -1.2071 H   0  0  0  0  0  0  0  0  0  0  0  0
    0.5619    3.4078   -1.5686 H   0  0  0  0  0  0  0  0  0  0  0  0
    2.9307    4.0024   -1.2553 H   0  0  0  0  0  0  0  0  0  0  0  0
    4.5558    2.2761   -0.5903 H   0  0  0  0  0  0  0  0  0  0  0  0
    1.3293   -3.2229    0.6481 H   0  0  0  0  0  0  0  0  0  0  0  0
   -0.5079   -4.3857    1.7993 H   0  0  0  0  0  0  0  0  0  0  0  0
   -1.5538   -6.3613    0.7719 H   0  0  0  0  0  0  0  0  0  0  0  0
   -0.7755   -7.1784   -1.4142 H   0  0  0  0  0  0  0  0  0  0  0  0
    1.0529   -6.0210   -2.5847 H   0  0  0  0  0  0  0  0  0  0  0  0
    6.7347   -5.3552   -8.6914 H   0  0  0  0  0  0  0  0  0  0  0  0
    4.5112   -2.4958   -3.0875 N   0  3  0  0  0  0  0  0  0  0  0  0
    5.2687   -2.0038   -3.5758 H   0  0  0  0  0  0  0  0  0  0  0  0
  1  2  1  0  0  0  0
  1 36  1  0  0  0  0
  1 37  1  0  0  0  0
  1 38  1  0  0  0  0
  2  7  2  0  0  0  0
  2  3  1  0  0  0  0
  3  4  2  0  0  0  0
  3 39  1  0  0  0  0
  4  5  1  0  0  0  0
  4 35  1  0  0  0  0
  5  6  2  0  0  0  0
  5 40  1  0  0  0  0
  6  7  1  0  0  0  0
  6 41  1  0  0  0  0
  7  8  1  0  0  0  0
  8  9  2  0  0  0  0
  8 66  1  0  0  0  0
  9 10  1  0  0  0  0
  9 42  1  0  0  0  0
 10 11  2  0  0  0  0
 10 29  1  0  0  0  0
 11 12  1  0  0  0  0
 11 43  1  0  0  0  0
 12 13  1  0  0  0  0
 12 66  2  0  0  0  0
 13 14  1  0  0  0  0
 13 22  1  0  0  0  0
 14 15  1  0  0  0  0
 14 44  1  0  0  0  0
 14 45  1  0  0  0  0
 15 16  1  0  0  0  0
 15 46  1  0  0  0  0
 15 47  1  0  0  0  0
 16 21  2  0  0  0  0
 16 17  1  0  0  0  0
 17 18  2  0  0  0  0
 17 48  1  0  0  0  0
 18 19  1  0  0  0  0
 18 49  1  0  0  0  0
 19 20  2  0  0  0  0
 19 50  1  0  0  0  0
 20 21  1  0  0  0  0
 20 51  1  0  0  0  0
 21 52  1  0  0  0  0
 22 23  1  0  0  0  0
 22 53  1  0  0  0  0
 22 54  1  0  0  0  0
 23 28  2  0  0  0  0
 23 24  1  0  0  0  0
 24 25  2  0  0  0  0
 24 55  1  0  0  0  0
 25 26  1  0  0  0  0
 25 56  1  0  0  0  0
 26 27  2  0  0  0  0
 26 57  1  0  0  0  0
 27 28  1  0  0  0  0
 27 58  1  0  0  0  0
 28 59  1  0  0  0  0
 29 34  2  0  0  0  0
 29 30  1  0  0  0  0
 30 31  2  0  0  0  0
 30 60  1  0  0  0  0
 31 32  1  0  0  0  0
 31 61  1  0  0  0  0
 32 33  2  0  0  0  0
 32 62  1  0  0  0  0
 33 34  1  0  0  0  0
 33 63  1  0  0  0  0
 34 64  1  0  0  0  0
 35 65  1  0  0  0  0
 66 67  1  0  0  0  0
M  CHG  1  66   1
M  END
$$$$
