ZINC01543842
  -OEChem-08230709403D

 66 70  0     0  0  0  0  0  0999 V2000
    0.8843   -0.7022    1.8458 C   0  0  0  0  0  0  0  0  0  0  0  0
    0.9499   -1.1513    3.1505 C   0  0  0  0  0  0  0  0  0  0  0  0
   -0.2176   -1.3656    3.8686 C   0  0  0  0  0  0  0  0  0  0  0  0
   -1.4482   -1.1231    3.2758 C   0  0  0  0  0  0  0  0  0  0  0  0
   -1.5083   -0.6691    1.9725 C   0  0  0  0  0  0  0  0  0  0  0  0
   -0.3432   -0.4558    1.2591 C   0  0  0  0  0  0  0  0  0  0  0  0
   -0.4116    0.0400   -0.1624 C   0  0  0  0  0  0  0  0  0  0  0  0
   -0.3946    1.5469   -0.1701 C   0  0  0  0  0  0  0  0  0  0  0  0
    0.8237    2.2399   -0.2410 C   0  0  0  0  0  0  0  0  0  0  0  0
    2.0485    1.5509   -0.3060 C   0  0  0  0  0  0  0  0  0  0  0  0
    3.2129    2.2499   -0.3742 C   0  0  0  0  0  0  0  0  0  0  0  0
    3.2118    3.6483   -0.3804 C   0  0  0  0  0  0  0  0  0  0  0  0
    2.0408    4.3488   -0.3184 C   0  0  0  0  0  0  0  0  0  0  0  0
    0.8202    3.6579   -0.2476 C   0  0  0  0  0  0  0  0  0  0  0  0
   -0.4025    4.3509   -0.1833 C   0  0  0  0  0  0  0  0  0  0  0  0
   -1.5705    3.6616   -0.1153 C   0  0  0  0  0  0  0  0  0  0  0  0
   -1.5791    2.2571   -0.1133 C   0  0  0  0  0  0  0  0  0  0  0  0
   -2.8699    1.5299   -0.0445 C   0  0  0  0  0  0  0  0  0  0  0  0
   -3.2103    0.6155   -1.0402 C   0  0  0  0  0  0  0  0  0  0  0  0
   -4.4092   -0.0624   -0.9711 C   0  0  0  0  0  0  0  0  0  0  0  0
   -5.2812    0.1722    0.0835 C   0  0  0  0  0  0  0  0  0  0  0  0
   -4.9474    1.0862    1.0738 C   0  0  0  0  0  0  0  0  0  0  0  0
   -3.7477    1.7636    1.0129 C   0  0  0  0  0  0  0  0  0  0  0  0
   -6.4639   -0.4937    0.1463 O   0  0  0  0  0  0  0  0  0  0  0  0
    4.3915    4.3192   -0.4484 O   0  0  0  0  0  0  0  0  0  0  0  0
   -0.1559   -1.8128    5.1505 O   0  0  0  0  0  0  0  0  0  0  0  0
    1.1450   -2.0409    5.6961 C   0  0  0  0  0  0  0  0  0  0  0  0
    1.0136   -2.5377    7.1372 C   0  0  0  0  0  0  0  0  0  0  0  0
   -0.2046   -4.1573    8.4613 C   0  0  0  0  0  0  0  0  0  0  0  0
   -0.9897   -5.4691    8.3911 C   0  0  0  0  0  0  0  0  0  0  0  0
   -0.0512   -6.5973    7.9543 C   0  0  0  0  0  0  0  0  0  0  0  0
    0.5706   -6.2385    6.6018 C   0  0  0  0  0  0  0  0  0  0  0  0
    1.3105   -4.9044    6.7239 C   0  0  0  0  0  0  0  0  0  0  0  0
    1.7928   -0.5394    1.2849 H   0  0  0  0  0  0  0  0  0  0  0  0
    1.9091   -1.3390    3.6099 H   0  0  0  0  0  0  0  0  0  0  0  0
   -2.3585   -1.2895    3.8326 H   0  0  0  0  0  0  0  0  0  0  0  0
   -2.4660   -0.4802    1.5105 H   0  0  0  0  0  0  0  0  0  0  0  0
   -1.3312   -0.3154   -0.6273 H   0  0  0  0  0  0  0  0  0  0  0  0
    0.4462   -0.3359   -0.7200 H   0  0  0  0  0  0  0  0  0  0  0  0
    2.0638    0.4710   -0.3020 H   0  0  0  0  0  0  0  0  0  0  0  0
    4.1513    1.7178   -0.4240 H   0  0  0  0  0  0  0  0  0  0  0  0
    2.0535    5.4287   -0.3236 H   0  0  0  0  0  0  0  0  0  0  0  0
   -0.4122    5.4309   -0.1884 H   0  0  0  0  0  0  0  0  0  0  0  0
   -2.5052    4.2004   -0.0662 H   0  0  0  0  0  0  0  0  0  0  0  0
   -2.5341    0.4353   -1.8628 H   0  0  0  0  0  0  0  0  0  0  0  0
   -4.6720   -0.7734   -1.7404 H   0  0  0  0  0  0  0  0  0  0  0  0
   -5.6277    1.2665    1.8930 H   0  0  0  0  0  0  0  0  0  0  0  0
   -3.4887    2.4747    1.7834 H   0  0  0  0  0  0  0  0  0  0  0  0
   -7.1937   -0.0422   -0.2995 H   0  0  0  0  0  0  0  0  0  0  0  0
    4.6843    4.5095   -1.3502 H   0  0  0  0  0  0  0  0  0  0  0  0
    1.6629   -2.7914    5.0989 H   0  0  0  0  0  0  0  0  0  0  0  0
    1.7128   -1.1106    5.6827 H   0  0  0  0  0  0  0  0  0  0  0  0
    2.0036   -2.6143    7.5867 H   0  0  0  0  0  0  0  0  0  0  0  0
    0.4079   -1.8353    7.7098 H   0  0  0  0  0  0  0  0  0  0  0  0
    0.5972   -4.2527    9.1935 H   0  0  0  0  0  0  0  0  0  0  0  0
   -0.8732   -3.3493    8.7582 H   0  0  0  0  0  0  0  0  0  0  0  0
   -1.8002   -5.3699    7.6691 H   0  0  0  0  0  0  0  0  0  0  0  0
   -1.4032   -5.6993    9.3730 H   0  0  0  0  0  0  0  0  0  0  0  0
   -0.6156   -7.5251    7.8611 H   0  0  0  0  0  0  0  0  0  0  0  0
    0.7377   -6.7237    8.6958 H   0  0  0  0  0  0  0  0  0  0  0  0
   -0.2153   -6.1514    5.8516 H   0  0  0  0  0  0  0  0  0  0  0  0
    1.2724   -7.0181    6.3057 H   0  0  0  0  0  0  0  0  0  0  0  0
    1.7423   -4.6390    5.7589 H   0  0  0  0  0  0  0  0  0  0  0  0
    2.1051   -4.9964    7.4644 H   0  0  0  0  0  0  0  0  0  0  0  0
    0.3473   -3.8563    7.1233 N   0  3  0  0  0  0  0  0  0  0  0  0
   -0.4217   -3.8341    6.4432 H   0  0  0  0  0  0  0  0  0  0  0  0
  1  6  2  0  0  0  0
  1  2  1  0  0  0  0
  1 34  1  0  0  0  0
  2  3  2  0  0  0  0
  2 35  1  0  0  0  0
  3  4  1  0  0  0  0
  3 26  1  0  0  0  0
  4  5  2  0  0  0  0
  4 36  1  0  0  0  0
  5  6  1  0  0  0  0
  5 37  1  0  0  0  0
  6  7  1  0  0  0  0
  7  8  1  0  0  0  0
  7 38  1  0  0  0  0
  7 39  1  0  0  0  0
  8 17  2  0  0  0  0
  8  9  1  0  0  0  0
  9 14  2  0  0  0  0
  9 10  1  0  0  0  0
 10 11  2  0  0  0  0
 10 40  1  0  0  0  0
 11 12  1  0  0  0  0
 11 41  1  0  0  0  0
 12 13  2  0  0  0  0
 12 25  1  0  0  0  0
 13 14  1  0  0  0  0
 13 42  1  0  0  0  0
 14 15  1  0  0  0  0
 15 16  2  0  0  0  0
 15 43  1  0  0  0  0
 16 17  1  0  0  0  0
 16 44  1  0  0  0  0
 17 18  1  0  0  0  0
 18 23  2  0  0  0  0
 18 19  1  0  0  0  0
 19 20  2  0  0  0  0
 19 45  1  0  0  0  0
 20 21  1  0  0  0  0
 20 46  1  0  0  0  0
 21 22  2  0  0  0  0
 21 24  1  0  0  0  0
 22 23  1  0  0  0  0
 22 47  1  0  0  0  0
 23 48  1  0  0  0  0
 24 49  1  0  0  0  0
 25 50  1  0  0  0  0
 26 27  1  0  0  0  0
 27 28  1  0  0  0  0
 27 51  1  0  0  0  0
 27 52  1  0  0  0  0
 28 53  1  0  0  0  0
 28 54  1  0  0  0  0
 28 65  1  0  0  0  0
 29 30  1  0  0  0  0
 29 55  1  0  0  0  0
 29 56  1  0  0  0  0
 29 65  1  0  0  0  0
 30 31  1  0  0  0  0
 30 57  1  0  0  0  0
 30 58  1  0  0  0  0
 31 32  1  0  0  0  0
 31 59  1  0  0  0  0
 31 60  1  0  0  0  0
 32 33  1  0  0  0  0
 32 61  1  0  0  0  0
 32 62  1  0  0  0  0
 33 63  1  0  0  0  0
 33 64  1  0  0  0  0
 33 65  1  0  0  0  0
 65 66  1  0  0  0  0
M  CHG  1  65   1
M  END
$$$$
