ZINC03793538
  -OEChem-08230709403D

 66 70  0     1  0  0  0  0  0999 V2000
   -4.4222    7.8638    7.5367 C   0  0  0  0  0  0  0  0  0  0  0  0
   -3.9934    6.4896    7.9827 C   0  0  0  0  0  0  0  0  0  0  0  0
   -4.8206    5.4339    7.8640 C   0  0  0  0  0  0  0  0  0  0  0  0
   -4.3595    4.0623    8.2816 C   0  0  2  0  0  0  0  0  0  0  0  0
   -5.2196    3.4795    8.6111 H   0  0  0  0  0  0  0  0  0  0  0  0
   -3.4149    4.1494    9.3475 O   0  0  0  0  0  0  0  0  0  0  0  0
   -2.4077    5.0507    9.2219 C   0  0  0  0  0  0  0  0  0  0  0  0
   -2.6566    6.2642    8.5604 C   0  0  0  0  0  0  0  0  0  0  0  0
   -1.6461    7.2156    8.4415 C   0  0  0  0  0  0  0  0  0  0  0  0
   -0.3965    6.9519    8.9644 C   0  0  0  0  0  0  0  0  0  0  0  0
   -0.1465    5.7452    9.6062 C   0  0  0  0  0  0  0  0  0  0  0  0
   -1.1515    4.7952    9.7352 C   0  0  0  0  0  0  0  0  0  0  0  0
    1.0892    5.4929   10.1112 O   0  0  0  0  0  0  0  0  0  0  0  0
   -3.7168    3.3754    7.1042 C   0  0  0  0  0  0  0  0  0  0  0  0
   -4.4663    2.5349    6.3020 C   0  0  0  0  0  0  0  0  0  0  0  0
   -3.8795    1.9040    5.2222 C   0  0  0  0  0  0  0  0  0  0  0  0
   -2.5370    2.1143    4.9430 C   0  0  0  0  0  0  0  0  0  0  0  0
   -1.7857    2.9536    5.7528 C   0  0  0  0  0  0  0  0  0  0  0  0
   -2.3787    3.5869    6.8278 C   0  0  0  0  0  0  0  0  0  0  0  0
   -1.9574    1.4949    3.8812 O   0  0  0  0  0  0  0  0  0  0  0  0
   -0.5713    1.7580    3.6540 C   0  0  0  0  0  0  0  0  0  0  0  0
   -0.0991    0.9786    2.4249 C   0  0  0  0  0  0  0  0  0  0  0  0
   -0.3503    0.7714    0.0261 C   0  0  0  0  0  0  0  0  0  0  0  0
   -1.2346    1.1613   -1.1605 C   0  0  0  0  0  0  0  0  0  0  0  0
   -1.1988    2.6816   -1.3396 C   0  0  0  0  0  0  0  0  0  0  0  0
   -1.6650    3.3514   -0.0440 C   0  0  0  0  0  0  0  0  0  0  0  0
   -0.7682    2.8980    1.1102 C   0  0  0  0  0  0  0  0  0  0  0  0
   -6.1786    5.6215    7.3240 C   0  0  0  0  0  0  0  0  0  0  0  0
   -7.2937    5.3867    8.1335 C   0  0  0  0  0  0  0  0  0  0  0  0
   -8.5618    5.5681    7.6253 C   0  0  0  0  0  0  0  0  0  0  0  0
   -8.7329    5.9733    6.3079 C   0  0  0  0  0  0  0  0  0  0  0  0
   -7.6282    6.2028    5.4981 C   0  0  0  0  0  0  0  0  0  0  0  0
   -6.3561    6.0292    5.9988 C   0  0  0  0  0  0  0  0  0  0  0  0
   -9.9853    6.1463    5.8099 O   0  0  0  0  0  0  0  0  0  0  0  0
   -3.6142    8.5728    7.7167 H   0  0  0  0  0  0  0  0  0  0  0  0
   -4.6575    7.8435    6.4726 H   0  0  0  0  0  0  0  0  0  0  0  0
   -5.3052    8.1689    8.0983 H   0  0  0  0  0  0  0  0  0  0  0  0
   -1.8393    8.1538    7.9426 H   0  0  0  0  0  0  0  0  0  0  0  0
    0.3903    7.6862    8.8742 H   0  0  0  0  0  0  0  0  0  0  0  0
   -0.9510    3.8592   10.2353 H   0  0  0  0  0  0  0  0  0  0  0  0
    1.6882    5.0601    9.4875 H   0  0  0  0  0  0  0  0  0  0  0  0
   -5.5114    2.3713    6.5200 H   0  0  0  0  0  0  0  0  0  0  0  0
   -4.4655    1.2480    4.5956 H   0  0  0  0  0  0  0  0  0  0  0  0
   -0.7392    3.1154    5.5402 H   0  0  0  0  0  0  0  0  0  0  0  0
   -1.7953    4.2439    7.4559 H   0  0  0  0  0  0  0  0  0  0  0  0
    0.0052    1.4468    4.5251 H   0  0  0  0  0  0  0  0  0  0  0  0
   -0.4270    2.8251    3.4851 H   0  0  0  0  0  0  0  0  0  0  0  0
   -0.2810   -0.0852    2.5774 H   0  0  0  0  0  0  0  0  0  0  0  0
    0.9673    1.1472    2.2755 H   0  0  0  0  0  0  0  0  0  0  0  0
   -0.3850   -0.3091    0.1652 H   0  0  0  0  0  0  0  0  0  0  0  0
    0.6767    1.0797   -0.1696 H   0  0  0  0  0  0  0  0  0  0  0  0
   -0.8633    0.6795   -2.0649 H   0  0  0  0  0  0  0  0  0  0  0  0
   -2.2593    0.8412   -0.9714 H   0  0  0  0  0  0  0  0  0  0  0  0
   -0.1808    2.9977   -1.5672 H   0  0  0  0  0  0  0  0  0  0  0  0
   -1.8613    2.9679   -2.1564 H   0  0  0  0  0  0  0  0  0  0  0  0
   -1.6011    4.4343   -0.1507 H   0  0  0  0  0  0  0  0  0  0  0  0
   -2.6964    3.0657    0.1627 H   0  0  0  0  0  0  0  0  0  0  0  0
    0.2608    3.1961    0.9094 H   0  0  0  0  0  0  0  0  0  0  0  0
   -1.1065    3.3618    2.0368 H   0  0  0  0  0  0  0  0  0  0  0  0
   -7.1616    5.0676    9.1568 H   0  0  0  0  0  0  0  0  0  0  0  0
   -9.4239    5.3906    8.2511 H   0  0  0  0  0  0  0  0  0  0  0  0
   -7.7663    6.5182    4.4745 H   0  0  0  0  0  0  0  0  0  0  0  0
   -5.4976    6.2082    5.3684 H   0  0  0  0  0  0  0  0  0  0  0  0
  -10.3617    5.3517    5.4075 H   0  0  0  0  0  0  0  0  0  0  0  0
   -0.8664    1.4290    1.2454 N   0  3  0  0  0  0  0  0  0  0  0  0
   -1.8524    1.1713    1.3707 H   0  0  0  0  0  0  0  0  0  0  0  0
  1  2  1  0  0  0  0
  1 35  1  0  0  0  0
  1 36  1  0  0  0  0
  1 37  1  0  0  0  0
  2  8  1  0  0  0  0
  2  3  2  0  0  0  0
  3  4  1  0  0  0  0
  3 28  1  0  0  0  0
  4  5  1  0  0  0  0
  4  6  1  0  0  0  0
  4 14  1  0  0  0  0
  6  7  1  0  0  0  0
  7 12  2  0  0  0  0
  7  8  1  0  0  0  0
  8  9  2  0  0  0  0
  9 10  1  0  0  0  0
  9 38  1  0  0  0  0
 10 11  2  0  0  0  0
 10 39  1  0  0  0  0
 11 12  1  0  0  0  0
 11 13  1  0  0  0  0
 12 40  1  0  0  0  0
 13 41  1  0  0  0  0
 14 19  2  0  0  0  0
 14 15  1  0  0  0  0
 15 16  2  0  0  0  0
 15 42  1  0  0  0  0
 16 17  1  0  0  0  0
 16 43  1  0  0  0  0
 17 18  2  0  0  0  0
 17 20  1  0  0  0  0
 18 19  1  0  0  0  0
 18 44  1  0  0  0  0
 19 45  1  0  0  0  0
 20 21  1  0  0  0  0
 21 22  1  0  0  0  0
 21 46  1  0  0  0  0
 21 47  1  0  0  0  0
 22 48  1  0  0  0  0
 22 49  1  0  0  0  0
 22 65  1  0  0  0  0
 23 24  1  0  0  0  0
 23 50  1  0  0  0  0
 23 51  1  0  0  0  0
 23 65  1  0  0  0  0
 24 25  1  0  0  0  0
 24 52  1  0  0  0  0
 24 53  1  0  0  0  0
 25 26  1  0  0  0  0
 25 54  1  0  0  0  0
 25 55  1  0  0  0  0
 26 27  1  0  0  0  0
 26 56  1  0  0  0  0
 26 57  1  0  0  0  0
 27 58  1  0  0  0  0
 27 59  1  0  0  0  0
 27 65  1  0  0  0  0
 28 33  2  0  0  0  0
 28 29  1  0  0  0  0
 29 30  2  0  0  0  0
 29 60  1  0  0  0  0
 30 31  1  0  0  0  0
 30 61  1  0  0  0  0
 31 32  2  0  0  0  0
 31 34  1  0  0  0  0
 32 33  1  0  0  0  0
 32 62  1  0  0  0  0
 33 63  1  0  0  0  0
 34 64  1  0  0  0  0
 65 66  1  0  0  0  0
M  CHG  1  65   1
M  END
$$$$
