ZINC03832204
  -OEChem-08230709403D

 50 54  0     0  0  0  0  0  0999 V2000
   -7.1085   14.3544   -1.8397 C   0  0  0  0  0  0  0  0  0  0  0  0
   -5.7319   14.3939   -1.7197 C   0  0  0  0  0  0  0  0  0  0  0  0
   -5.0074   13.2172   -1.6815 C   0  0  0  0  0  0  0  0  0  0  0  0
   -5.6594   12.0011   -1.7638 C   0  0  0  0  0  0  0  0  0  0  0  0
   -7.0355   11.9618   -1.8895 C   0  0  0  0  0  0  0  0  0  0  0  0
   -7.7605   13.1383   -1.9219 C   0  0  0  0  0  0  0  0  0  0  0  0
   -4.8696   10.7183   -1.7226 C   0  0  0  0  0  0  0  0  0  0  0  0
   -4.7267   10.2537   -0.2719 C   0  0  0  0  0  0  0  0  0  0  0  0
   -3.9368    8.9710   -0.2307 C   0  0  0  0  0  0  0  0  0  0  0  0
   -2.5592    9.0139   -0.1105 C   0  0  0  0  0  0  0  0  0  0  0  0
   -1.8302    7.8432   -0.0723 C   0  0  0  0  0  0  0  0  0  0  0  0
   -2.4854    6.6139   -0.1551 C   0  0  0  0  0  0  0  0  0  0  0  0
   -3.8747    6.5776   -0.2820 C   0  0  0  0  0  0  0  0  0  0  0  0
   -4.5924    7.7554   -0.3138 C   0  0  0  0  0  0  0  0  0  0  0  0
   -1.7103    5.3551   -0.1147 C   0  0  0  0  0  0  0  0  0  0  0  0
   -2.1382    4.1618   -0.5888 C   0  0  0  0  0  0  0  0  0  0  0  0
   -1.0659    3.1994   -0.3386 C   0  0  0  0  0  0  0  0  0  0  0  0
   -0.9486    1.8207   -0.5375 C   0  0  0  0  0  0  0  0  0  0  0  0
    0.2218    1.1777   -0.1967 C   0  0  0  0  0  0  0  0  0  0  0  0
    1.2933    1.8895    0.3066 C   0  0  0  0  0  0  0  0  0  0  0  0
    1.2127    3.2740    0.4897 C   0  0  0  0  0  0  0  0  0  0  0  0
    0.0020    3.9277    0.2167 C   0  0  0  0  0  0  0  0  0  0  0  0
   -0.4428    5.2204    0.4124 N   0  0  0  0  0  0  0  0  0  0  0  0
    0.3167    6.2515    1.0869 C   0  0  0  0  0  0  0  0  0  0  0  0
    1.2282    5.7062    2.1663 C   0  0  0  0  0  0  0  0  0  0  0  0
    2.4379    5.1247    1.6333 N   0  0  0  0  0  0  0  0  0  0  0  0
    2.4196    4.0005    0.8936 C   0  0  0  0  0  0  0  0  0  0  0  0
    3.4901    3.5515    0.5317 O   0  0  0  0  0  0  0  0  0  0  0  0
   -7.6745   15.2737   -1.8688 H   0  0  0  0  0  0  0  0  0  0  0  0
   -5.2225   15.3440   -1.6554 H   0  0  0  0  0  0  0  0  0  0  0  0
   -3.9319   13.2481   -1.5877 H   0  0  0  0  0  0  0  0  0  0  0  0
   -7.5445   11.0117   -1.9582 H   0  0  0  0  0  0  0  0  0  0  0  0
   -8.8360   13.1074   -2.0154 H   0  0  0  0  0  0  0  0  0  0  0  0
   -3.8808   10.8867   -2.1493 H   0  0  0  0  0  0  0  0  0  0  0  0
   -5.3889    9.9532   -2.2997 H   0  0  0  0  0  0  0  0  0  0  0  0
   -5.7155   10.0854    0.1548 H   0  0  0  0  0  0  0  0  0  0  0  0
   -4.2074   11.0188    0.3052 H   0  0  0  0  0  0  0  0  0  0  0  0
   -2.0534    9.9660   -0.0461 H   0  0  0  0  0  0  0  0  0  0  0  0
   -0.7548    7.8781    0.0213 H   0  0  0  0  0  0  0  0  0  0  0  0
   -4.3872    5.6295   -0.3514 H   0  0  0  0  0  0  0  0  0  0  0  0
   -5.6680    7.7287   -0.4078 H   0  0  0  0  0  0  0  0  0  0  0  0
   -3.0882    3.9594   -1.0609 H   0  0  0  0  0  0  0  0  0  0  0  0
   -1.7721    1.2615   -0.9564 H   0  0  0  0  0  0  0  0  0  0  0  0
    0.3017    0.1082   -0.3239 H   0  0  0  0  0  0  0  0  0  0  0  0
    2.2037    1.3697    0.5662 H   0  0  0  0  0  0  0  0  0  0  0  0
    0.9123    6.7873    0.3478 H   0  0  0  0  0  0  0  0  0  0  0  0
   -0.3785    6.9534    1.5475 H   0  0  0  0  0  0  0  0  0  0  0  0
    0.6945    4.9444    2.7346 H   0  0  0  0  0  0  0  0  0  0  0  0
    1.4981    6.5195    2.8399 H   0  0  0  0  0  0  0  0  0  0  0  0
    3.2876    5.5563    1.8139 H   0  0  0  0  0  0  0  0  0  0  0  0
  1  6  2  0  0  0  0
  1  2  1  0  0  0  0
  1 29  1  0  0  0  0
  2  3  2  0  0  0  0
  2 30  1  0  0  0  0
  3  4  1  0  0  0  0
  3 31  1  0  0  0  0
  4  5  2  0  0  0  0
  4  7  1  0  0  0  0
  5  6  1  0  0  0  0
  5 32  1  0  0  0  0
  6 33  1  0  0  0  0
  7  8  1  0  0  0  0
  7 34  1  0  0  0  0
  7 35  1  0  0  0  0
  8  9  1  0  0  0  0
  8 36  1  0  0  0  0
  8 37  1  0  0  0  0
  9 14  2  0  0  0  0
  9 10  1  0  0  0  0
 10 11  2  0  0  0  0
 10 38  1  0  0  0  0
 11 12  1  0  0  0  0
 11 39  1  0  0  0  0
 12 13  2  0  0  0  0
 12 15  1  0  0  0  0
 13 14  1  0  0  0  0
 13 40  1  0  0  0  0
 14 41  1  0  0  0  0
 15 23  1  0  0  0  0
 15 16  2  0  0  0  0
 16 17  1  0  0  0  0
 16 42  1  0  0  0  0
 17 22  2  0  0  0  0
 17 18  1  0  0  0  0
 18 19  2  0  0  0  0
 18 43  1  0  0  0  0
 19 20  1  0  0  0  0
 19 44  1  0  0  0  0
 20 21  2  0  0  0  0
 20 45  1  0  0  0  0
 21 27  1  0  0  0  0
 21 22  1  0  0  0  0
 22 23  1  0  0  0  0
 23 24  1  0  0  0  0
 24 25  1  0  0  0  0
 24 46  1  0  0  0  0
 24 47  1  0  0  0  0
 25 26  1  0  0  0  0
 25 48  1  0  0  0  0
 25 49  1  0  0  0  0
 26 27  1  0  0  0  0
 26 50  1  0  0  0  0
 27 28  2  0  0  0  0
M  END
$$$$
