ZINC03832203
  -OEChem-08230709403D

 34 37  0     0  0  0  0  0  0999 V2000
    1.1714    1.7854    0.0364 C   0  0  0  0  0  0  0  0  0  0  0  0
   -0.0102    1.0772    0.0890 C   0  0  0  0  0  0  0  0  0  0  0  0
   -1.2295    1.7590    0.0574 C   0  0  0  0  0  0  0  0  0  0  0  0
   -2.6250    1.3223    0.0845 C   0  0  0  0  0  0  0  0  0  0  0  0
   -3.3837    2.4424    0.1255 C   0  0  0  0  0  0  0  0  0  0  0  0
   -2.5701    3.5575    0.1319 N   0  0  0  0  0  0  0  0  0  0  0  0
   -1.2531    3.1648   -0.0074 C   0  0  0  0  0  0  0  0  0  0  0  0
   -0.0464    3.8674   -0.1374 C   0  0  0  0  0  0  0  0  0  0  0  0
    1.1605    3.1617   -0.0770 C   0  0  0  0  0  0  0  0  0  0  0  0
   -0.0050    5.3097   -0.3933 C   0  0  0  0  0  0  0  0  0  0  0  0
    0.9134    5.7323   -1.0690 O   0  0  0  0  0  0  0  0  0  0  0  0
   -0.9025    6.2032    0.0601 N   0  0  0  0  0  0  0  0  0  0  0  0
   -1.9905    5.8205    0.9297 C   0  0  0  0  0  0  0  0  0  0  0  0
   -3.0046    4.9330    0.2565 C   0  0  0  0  0  0  0  0  0  0  0  0
   -4.8616    2.4676    0.1689 C   0  0  0  0  0  0  0  0  0  0  0  0
   -5.5685    1.3468    0.6069 C   0  0  0  0  0  0  0  0  0  0  0  0
   -6.9468    1.3771    0.6491 C   0  0  0  0  0  0  0  0  0  0  0  0
   -7.6300    2.5144    0.2489 C   0  0  0  0  0  0  0  0  0  0  0  0
   -6.9330    3.6284   -0.1914 C   0  0  0  0  0  0  0  0  0  0  0  0
   -5.5546    3.6103   -0.2334 C   0  0  0  0  0  0  0  0  0  0  0  0
   -8.9802    2.5371    0.2877 F   0  0  0  0  0  0  0  0  0  0  0  0
    2.1135    1.2596    0.0846 H   0  0  0  0  0  0  0  0  0  0  0  0
    0.0065   -0.0010    0.1498 H   0  0  0  0  0  0  0  0  0  0  0  0
   -2.9814    0.3028    0.0739 H   0  0  0  0  0  0  0  0  0  0  0  0
    2.0956    3.7003   -0.1200 H   0  0  0  0  0  0  0  0  0  0  0  0
   -0.8166    7.1323   -0.2049 H   0  0  0  0  0  0  0  0  0  0  0  0
   -2.4923    6.7223    1.2802 H   0  0  0  0  0  0  0  0  0  0  0  0
   -1.5811    5.2932    1.7913 H   0  0  0  0  0  0  0  0  0  0  0  0
   -3.2079    5.3271   -0.7393 H   0  0  0  0  0  0  0  0  0  0  0  0
   -3.9285    4.9569    0.8344 H   0  0  0  0  0  0  0  0  0  0  0  0
   -5.0372    0.4585    0.9151 H   0  0  0  0  0  0  0  0  0  0  0  0
   -7.4947    0.5113    0.9908 H   0  0  0  0  0  0  0  0  0  0  0  0
   -7.4703    4.5121   -0.5025 H   0  0  0  0  0  0  0  0  0  0  0  0
   -5.0124    4.4787   -0.5774 H   0  0  0  0  0  0  0  0  0  0  0  0
  1  9  2  0  0  0  0
  1  2  1  0  0  0  0
  1 22  1  0  0  0  0
  2  3  2  0  0  0  0
  2 23  1  0  0  0  0
  3  7  1  0  0  0  0
  3  4  1  0  0  0  0
  4  5  2  0  0  0  0
  4 24  1  0  0  0  0
  5  6  1  0  0  0  0
  5 15  1  0  0  0  0
  6 14  1  0  0  0  0
  6  7  1  0  0  0  0
  7  8  2  0  0  0  0
  8  9  1  0  0  0  0
  8 10  1  0  0  0  0
  9 25  1  0  0  0  0
 10 11  2  0  0  0  0
 10 12  1  0  0  0  0
 12 13  1  0  0  0  0
 12 26  1  0  0  0  0
 13 14  1  0  0  0  0
 13 27  1  0  0  0  0
 13 28  1  0  0  0  0
 14 29  1  0  0  0  0
 14 30  1  0  0  0  0
 15 20  2  0  0  0  0
 15 16  1  0  0  0  0
 16 17  2  0  0  0  0
 16 31  1  0  0  0  0
 17 18  1  0  0  0  0
 17 32  1  0  0  0  0
 18 19  2  0  0  0  0
 18 21  1  0  0  0  0
 19 20  1  0  0  0  0
 19 33  1  0  0  0  0
 20 34  1  0  0  0  0
M  END
$$$$
