ZINC03815634
  -OEChem-08230709403D

 63 67  0     1  0  0  0  0  0999 V2000
   13.5124   -0.8331    6.7843 C   0  0  0  0  0  0  0  0  0  0  0  0
   13.5998   -1.4699    5.4678 N   0  0  0  0  0  0  0  0  0  0  0  0
   13.3990   -2.7955    5.1918 C   0  0  0  0  0  0  0  0  0  0  0  0
   13.5768   -2.9486    3.8657 C   0  0  0  0  0  0  0  0  0  0  0  0
   13.8830   -1.7502    3.3470 N   0  0  0  0  0  0  0  0  0  0  0  0
   13.8936   -0.8588    4.3000 C   0  0  0  0  0  0  0  0  0  0  0  0
   13.4390   -4.4599    2.9702 S   0  0  0  0  0  0  0  0  0  0  0  0
   13.6689   -5.5070    3.9030 O   0  0  0  0  0  0  0  0  0  0  0  0
   14.2169   -4.3057    1.7911 O   0  0  0  0  0  0  0  0  0  0  0  0
   11.8625   -4.5980    2.4826 N   0  0  0  0  0  0  0  0  0  0  0  0
   11.3301   -3.6817    1.5727 C   0  0  0  0  0  0  0  0  0  0  0  0
   11.5696   -2.3226    1.7326 C   0  0  0  0  0  0  0  0  0  0  0  0
   11.0421   -1.4195    0.8310 C   0  0  0  0  0  0  0  0  0  0  0  0
   10.2808   -1.8670   -0.2335 C   0  0  0  0  0  0  0  0  0  0  0  0
   10.0359   -3.2185   -0.3923 C   0  0  0  0  0  0  0  0  0  0  0  0
   10.5605   -4.1273    0.5058 C   0  0  0  0  0  0  0  0  0  0  0  0
    9.2007   -3.7010   -1.5502 C   0  0  1  0  0  0  0  0  0  0  0  0
    9.0799   -4.7824   -1.4854 H   0  0  0  0  0  0  0  0  0  0  0  0
    7.8470   -3.0406   -1.5028 C   0  0  0  0  0  0  0  0  0  0  0  0
    7.1495   -2.7813   -2.6686 C   0  0  0  0  0  0  0  0  0  0  0  0
    5.8815   -2.1648   -2.5778 C   0  0  0  0  0  0  0  0  0  0  0  0
    5.3833   -1.8351   -1.3713 C   0  0  0  0  0  0  0  0  0  0  0  0
    6.0658   -2.0898   -0.2456 O   0  0  0  0  0  0  0  0  0  0  0  0
    7.2737   -2.6784   -0.2776 C   0  0  0  0  0  0  0  0  0  0  0  0
    7.8717   -2.8979    0.7629 O   0  0  0  0  0  0  0  0  0  0  0  0
    4.0320   -1.1737   -1.2841 C   0  0  0  0  0  0  0  0  0  0  0  0
    2.9463   -2.2453   -1.1667 C   0  0  0  0  0  0  0  0  0  0  0  0
    1.5950   -1.5840   -1.0795 C   0  0  0  0  0  0  0  0  0  0  0  0
    0.8811   -1.3158   -2.2324 C   0  0  0  0  0  0  0  0  0  0  0  0
   -0.3585   -0.7091   -2.1524 C   0  0  0  0  0  0  0  0  0  0  0  0
   -0.8840   -0.3706   -0.9194 C   0  0  0  0  0  0  0  0  0  0  0  0
   -0.1702   -0.6392    0.2335 C   0  0  0  0  0  0  0  0  0  0  0  0
    1.0693   -1.2458    0.1535 C   0  0  0  0  0  0  0  0  0  0  0  0
    7.6693   -3.1166   -3.8729 O   0  0  0  0  0  0  0  0  0  0  0  0
    9.8968   -3.3436   -2.8650 C   0  0  0  0  0  0  0  0  0  0  0  0
   10.0927   -4.4643   -3.8881 C   0  0  0  0  0  0  0  0  0  0  0  0
   11.2921   -3.9231   -3.1059 C   0  0  0  0  0  0  0  0  0  0  0  0
   14.4898   -0.8589    7.2660 H   0  0  0  0  0  0  0  0  0  0  0  0
   13.1925    0.2022    6.6665 H   0  0  0  0  0  0  0  0  0  0  0  0
   12.7897   -1.3689    7.3997 H   0  0  0  0  0  0  0  0  0  0  0  0
   13.1467   -3.5698    5.9012 H   0  0  0  0  0  0  0  0  0  0  0  0
   14.1063    0.1928    4.1759 H   0  0  0  0  0  0  0  0  0  0  0  0
   11.3088   -5.3153    2.8288 H   0  0  0  0  0  0  0  0  0  0  0  0
   12.1679   -1.9728    2.5609 H   0  0  0  0  0  0  0  0  0  0  0  0
   11.2278   -0.3628    0.9547 H   0  0  0  0  0  0  0  0  0  0  0  0
    9.8734   -1.1589   -0.9399 H   0  0  0  0  0  0  0  0  0  0  0  0
   10.3728   -5.1832    0.3785 H   0  0  0  0  0  0  0  0  0  0  0  0
    5.3154   -1.9555   -3.4734 H   0  0  0  0  0  0  0  0  0  0  0  0
    3.8600   -0.5790   -2.1812 H   0  0  0  0  0  0  0  0  0  0  0  0
    4.0001   -0.5266   -0.4075 H   0  0  0  0  0  0  0  0  0  0  0  0
    3.1184   -2.8401   -0.2696 H   0  0  0  0  0  0  0  0  0  0  0  0
    2.9783   -2.8924   -2.0433 H   0  0  0  0  0  0  0  0  0  0  0  0
    1.2918   -1.5800   -3.1957 H   0  0  0  0  0  0  0  0  0  0  0  0
   -0.9161   -0.4993   -3.0531 H   0  0  0  0  0  0  0  0  0  0  0  0
   -1.8503    0.1078   -0.8572 H   0  0  0  0  0  0  0  0  0  0  0  0
   -0.5807   -0.3744    1.1967 H   0  0  0  0  0  0  0  0  0  0  0  0
    1.6270   -1.4556    1.0543 H   0  0  0  0  0  0  0  0  0  0  0  0
    7.4347   -4.0069   -4.1684 H   0  0  0  0  0  0  0  0  0  0  0  0
    9.6945   -2.3430   -3.2471 H   0  0  0  0  0  0  0  0  0  0  0  0
    9.7257   -5.4562   -3.6244 H   0  0  0  0  0  0  0  0  0  0  0  0
   10.0197   -4.2009   -4.9432 H   0  0  0  0  0  0  0  0  0  0  0  0
   12.0077   -3.3040   -3.6469 H   0  0  0  0  0  0  0  0  0  0  0  0
   11.7144   -4.5587   -2.3276 H   0  0  0  0  0  0  0  0  0  0  0  0
  1  2  1  0  0  0  0
  1 38  1  0  0  0  0
  1 39  1  0  0  0  0
  1 40  1  0  0  0  0
  2  6  1  0  0  0  0
  2  3  1  0  0  0  0
  3  4  2  0  0  0  0
  3 41  1  0  0  0  0
  4  5  1  0  0  0  0
  4  7  1  0  0  0  0
  5  6  2  0  0  0  0
  6 42  1  0  0  0  0
  7  8  2  0  0  0  0
  7  9  2  0  0  0  0
  7 10  1  0  0  0  0
 10 11  1  0  0  0  0
 10 43  1  0  0  0  0
 11 16  2  0  0  0  0
 11 12  1  0  0  0  0
 12 13  2  0  0  0  0
 12 44  1  0  0  0  0
 13 14  1  0  0  0  0
 13 45  1  0  0  0  0
 14 15  2  0  0  0  0
 14 46  1  0  0  0  0
 15 16  1  0  0  0  0
 15 17  1  0  0  0  0
 16 47  1  0  0  0  0
 17 18  1  0  0  0  0
 17 19  1  0  0  0  0
 17 35  1  0  0  0  0
 19 24  1  0  0  0  0
 19 20  2  0  0  0  0
 20 21  1  0  0  0  0
 20 34  1  0  0  0  0
 21 22  2  0  0  0  0
 21 48  1  0  0  0  0
 22 23  1  0  0  0  0
 22 26  1  0  0  0  0
 23 24  1  0  0  0  0
 24 25  2  0  0  0  0
 26 27  1  0  0  0  0
 26 49  1  0  0  0  0
 26 50  1  0  0  0  0
 27 28  1  0  0  0  0
 27 51  1  0  0  0  0
 27 52  1  0  0  0  0
 28 33  2  0  0  0  0
 28 29  1  0  0  0  0
 29 30  2  0  0  0  0
 29 53  1  0  0  0  0
 30 31  1  0  0  0  0
 30 54  1  0  0  0  0
 31 32  2  0  0  0  0
 31 55  1  0  0  0  0
 32 33  1  0  0  0  0
 32 56  1  0  0  0  0
 33 57  1  0  0  0  0
 34 58  1  0  0  0  0
 35 37  1  0  0  0  0
 35 36  1  0  0  0  0
 35 59  1  0  0  0  0
 36 37  1  0  0  0  0
 36 60  1  0  0  0  0
 36 61  1  0  0  0  0
 37 62  1  0  0  0  0
 37 63  1  0  0  0  0
M  END
$$$$
