ZINC03833858
  -OEChem-08230709403D

 80 84  0     1  0  0  0  0  0999 V2000
    3.2003    0.9138    1.0957 C   0  0  0  0  0  0  0  0  0  0  0  0
    3.8118    2.0720    1.5380 C   0  0  0  0  0  0  0  0  0  0  0  0
    3.3885    3.3006    1.0665 C   0  0  0  0  0  0  0  0  0  0  0  0
    2.3499    3.3713    0.1569 C   0  0  0  0  0  0  0  0  0  0  0  0
    1.7352    2.2134   -0.2817 C   0  0  0  0  0  0  0  0  0  0  0  0
    2.1591    0.9848    0.1892 C   0  0  0  0  0  0  0  0  0  0  0  0
    1.8881    4.7106   -0.3568 C   0  0  0  0  0  0  0  0  0  0  0  0
    2.5389    4.9883   -1.7178 C   0  0  2  0  0  0  0  0  0  0  0  0
    2.3012    4.1594   -2.3880 H   0  0  0  0  0  0  0  0  0  0  0  0
    4.0373    5.0815   -1.5378 C   0  0  1  0  0  0  0  0  0  0  0  0
    4.4637    4.0768   -1.5812 H   0  0  0  0  0  0  0  0  0  0  0  0
    4.7416    5.9789   -2.5319 C   0  0  2  0  0  0  0  0  0  0  0  0
    4.4454    7.0192   -2.3482 H   0  0  0  0  0  0  0  0  0  0  0  0
    4.4073    5.6117   -3.9774 C   0  0  2  0  0  0  0  0  0  0  0  0
    5.1664    6.0747   -4.6308 H   0  0  0  0  0  0  0  0  0  0  0  0
    3.1071    6.1433   -4.3675 N   0  0  0  0  0  0  0  0  0  0  0  0
    2.1663    6.5695   -3.5488 C   0  0  0  0  0  0  0  0  0  0  0  0
    1.3692    7.3724   -4.0123 O   0  0  0  0  0  0  0  0  0  0  0  0
    1.9816    6.2228   -2.2657 N   0  0  0  0  0  0  0  0  0  0  0  0
    1.1967    7.1045   -1.3924 C   0  0  0  0  0  0  0  0  0  0  0  0
    2.0856    8.1927   -0.8476 C   0  0  0  0  0  0  0  0  0  0  0  0
    2.7488    8.0081    0.3512 C   0  0  0  0  0  0  0  0  0  0  0  0
    3.5679    9.0044    0.8485 C   0  0  0  0  0  0  0  0  0  0  0  0
    3.7156   10.1894    0.1523 C   0  0  0  0  0  0  0  0  0  0  0  0
    3.0483   10.3761   -1.0439 C   0  0  0  0  0  0  0  0  0  0  0  0
    2.2333    9.3778   -1.5438 C   0  0  0  0  0  0  0  0  0  0  0  0
    4.6038   11.2780    0.6975 C   0  0  0  0  0  0  0  0  0  0  0  0
    3.8361   12.1437    1.5361 O   0  0  0  0  0  0  0  0  0  0  0  0
    2.8189    6.2105   -5.8068 C   0  0  0  0  0  0  0  0  0  0  0  0
    3.1401    7.5908   -6.3194 C   0  0  0  0  0  0  0  0  0  0  0  0
    2.1664    8.5720   -6.3193 C   0  0  0  0  0  0  0  0  0  0  0  0
    2.4623    9.8395   -6.7850 C   0  0  0  0  0  0  0  0  0  0  0  0
    3.7290   10.1227   -7.2606 C   0  0  0  0  0  0  0  0  0  0  0  0
    4.7012    9.1401   -7.2656 C   0  0  0  0  0  0  0  0  0  0  0  0
    4.4068    7.8741   -6.7950 C   0  0  0  0  0  0  0  0  0  0  0  0
    4.0499   11.5027   -7.7741 C   0  0  0  0  0  0  0  0  0  0  0  0
    3.7694   11.5673   -9.1738 O   0  0  0  0  0  0  0  0  0  0  0  0
    4.4562    4.1036   -4.2000 C   0  0  0  0  0  0  0  0  0  0  0  0
    4.4005    3.8118   -5.6774 C   0  0  0  0  0  0  0  0  0  0  0  0
    3.2084    3.4260   -6.2613 C   0  0  0  0  0  0  0  0  0  0  0  0
    3.1563    3.1630   -7.6174 C   0  0  0  0  0  0  0  0  0  0  0  0
    4.2986    3.2757   -8.3877 C   0  0  0  0  0  0  0  0  0  0  0  0
    5.4919    3.6565   -7.8028 C   0  0  0  0  0  0  0  0  0  0  0  0
    5.5428    3.9245   -6.4477 C   0  0  0  0  0  0  0  0  0  0  0  0
    6.1588    5.8806   -2.3350 O   0  0  0  0  0  0  0  0  0  0  0  0
    4.2962    5.5869   -0.2178 O   0  0  0  0  0  0  0  0  0  0  0  0
    3.5340   -0.0463    1.4608 H   0  0  0  0  0  0  0  0  0  0  0  0
    4.6232    2.0168    2.2487 H   0  0  0  0  0  0  0  0  0  0  0  0
    3.8689    4.2052    1.4089 H   0  0  0  0  0  0  0  0  0  0  0  0
    0.9240    2.2687   -0.9926 H   0  0  0  0  0  0  0  0  0  0  0  0
    1.6791    0.0802   -0.1538 H   0  0  0  0  0  0  0  0  0  0  0  0
    0.8038    4.7032   -0.4674 H   0  0  0  0  0  0  0  0  0  0  0  0
    2.1760    5.4895    0.3493 H   0  0  0  0  0  0  0  0  0  0  0  0
    0.3834    7.5518   -1.9638 H   0  0  0  0  0  0  0  0  0  0  0  0
    0.7845    6.5246   -0.5666 H   0  0  0  0  0  0  0  0  0  0  0  0
    2.6299    7.0840    0.8973 H   0  0  0  0  0  0  0  0  0  0  0  0
    4.0890    8.8587    1.7832 H   0  0  0  0  0  0  0  0  0  0  0  0
    3.1635   11.3021   -1.5877 H   0  0  0  0  0  0  0  0  0  0  0  0
    1.7117    9.5238   -2.4782 H   0  0  0  0  0  0  0  0  0  0  0  0
    5.4110   10.8316    1.2782 H   0  0  0  0  0  0  0  0  0  0  0  0
    5.0245   11.8515   -0.1285 H   0  0  0  0  0  0  0  0  0  0  0  0
    4.3448   12.8696    1.9226 H   0  0  0  0  0  0  0  0  0  0  0  0
    3.4281    5.4763   -6.3340 H   0  0  0  0  0  0  0  0  0  0  0  0
    1.7637    5.9963   -5.9765 H   0  0  0  0  0  0  0  0  0  0  0  0
    1.1755    8.3495   -5.9519 H   0  0  0  0  0  0  0  0  0  0  0  0
    1.7027   10.6071   -6.7815 H   0  0  0  0  0  0  0  0  0  0  0  0
    5.6908    9.3613   -7.6375 H   0  0  0  0  0  0  0  0  0  0  0  0
    5.1662    7.1062   -6.7992 H   0  0  0  0  0  0  0  0  0  0  0  0
    3.4408   12.2372   -7.2472 H   0  0  0  0  0  0  0  0  0  0  0  0
    5.1051   11.7172   -7.6048 H   0  0  0  0  0  0  0  0  0  0  0  0
    3.9530   12.4290   -9.5724 H   0  0  0  0  0  0  0  0  0  0  0  0
    5.3821    3.7049   -3.7855 H   0  0  0  0  0  0  0  0  0  0  0  0
    3.6053    3.6355   -3.7049 H   0  0  0  0  0  0  0  0  0  0  0  0
    2.3169    3.3337   -5.6587 H   0  0  0  0  0  0  0  0  0  0  0  0
    2.2241    2.8652   -8.0743 H   0  0  0  0  0  0  0  0  0  0  0  0
    4.2589    3.0660   -9.4464 H   0  0  0  0  0  0  0  0  0  0  0  0
    6.3844    3.7442   -8.4046 H   0  0  0  0  0  0  0  0  0  0  0  0
    6.4752    4.2216   -5.9907 H   0  0  0  0  0  0  0  0  0  0  0  0
    6.4475    6.0996   -1.4384 H   0  0  0  0  0  0  0  0  0  0  0  0
    5.2359    5.6813   -0.0101 H   0  0  0  0  0  0  0  0  0  0  0  0
  1  6  2  0  0  0  0
  1  2  1  0  0  0  0
  1 47  1  0  0  0  0
  2  3  2  0  0  0  0
  2 48  1  0  0  0  0
  3  4  1  0  0  0  0
  3 49  1  0  0  0  0
  4  5  2  0  0  0  0
  4  7  1  0  0  0  0
  5  6  1  0  0  0  0
  5 50  1  0  0  0  0
  6 51  1  0  0  0  0
  7  8  1  0  0  0  0
  7 52  1  0  0  0  0
  7 53  1  0  0  0  0
  8  9  1  0  0  0  0
  8 19  1  0  0  0  0
  8 10  1  0  0  0  0
 10 11  1  0  0  0  0
 10 12  1  0  0  0  0
 10 46  1  0  0  0  0
 12 13  1  0  0  0  0
 12 14  1  0  0  0  0
 12 45  1  0  0  0  0
 14 15  1  0  0  0  0
 14 16  1  0  0  0  0
 14 38  1  0  0  0  0
 16 17  1  0  0  0  0
 16 29  1  0  0  0  0
 17 18  2  0  0  0  0
 17 19  1  0  0  0  0
 19 20  1  0  0  0  0
 20 21  1  0  0  0  0
 20 54  1  0  0  0  0
 20 55  1  0  0  0  0
 21 26  2  0  0  0  0
 21 22  1  0  0  0  0
 22 23  2  0  0  0  0
 22 56  1  0  0  0  0
 23 24  1  0  0  0  0
 23 57  1  0  0  0  0
 24 25  2  0  0  0  0
 24 27  1  0  0  0  0
 25 26  1  0  0  0  0
 25 58  1  0  0  0  0
 26 59  1  0  0  0  0
 27 28  1  0  0  0  0
 27 60  1  0  0  0  0
 27 61  1  0  0  0  0
 28 62  1  0  0  0  0
 29 30  1  0  0  0  0
 29 63  1  0  0  0  0
 29 64  1  0  0  0  0
 30 35  2  0  0  0  0
 30 31  1  0  0  0  0
 31 32  2  0  0  0  0
 31 65  1  0  0  0  0
 32 33  1  0  0  0  0
 32 66  1  0  0  0  0
 33 34  2  0  0  0  0
 33 36  1  0  0  0  0
 34 35  1  0  0  0  0
 34 67  1  0  0  0  0
 35 68  1  0  0  0  0
 36 37  1  0  0  0  0
 36 69  1  0  0  0  0
 36 70  1  0  0  0  0
 37 71  1  0  0  0  0
 38 39  1  0  0  0  0
 38 72  1  0  0  0  0
 38 73  1  0  0  0  0
 39 44  2  0  0  0  0
 39 40  1  0  0  0  0
 40 41  2  0  0  0  0
 40 74  1  0  0  0  0
 41 42  1  0  0  0  0
 41 75  1  0  0  0  0
 42 43  2  0  0  0  0
 42 76  1  0  0  0  0
 43 44  1  0  0  0  0
 43 77  1  0  0  0  0
 44 78  1  0  0  0  0
 45 79  1  0  0  0  0
 46 80  1  0  0  0  0
M  END
$$$$
