ZINC03832311
  -OEChem-08230709403D

 37 39  0     0  0  0  0  0  0999 V2000
   -0.7818    5.2765    2.3790 C   0  0  0  0  0  0  0  0  0  0  0  0
   -0.7356    3.7703    2.4027 C   0  0  0  0  0  0  0  0  0  0  0  0
   -0.7591    3.0844    1.2671 C   0  0  0  0  0  0  0  0  0  0  0  0
   -0.7288    1.5792    1.2668 C   0  0  0  0  0  0  0  0  0  0  0  0
   -0.0172    1.0918    2.4553 N   0  0  0  0  0  0  0  0  0  0  0  0
   -0.2898    1.6949    3.6849 C   0  0  0  0  0  0  0  0  0  0  0  0
   -0.6635    3.0501    3.6900 C   0  0  0  0  0  0  0  0  0  0  0  0
   -0.9513    3.6841    4.8910 C   0  0  0  0  0  0  0  0  0  0  0  0
   -0.8613    2.9673    6.0845 C   0  0  0  0  0  0  0  0  0  0  0  0
   -0.4843    1.6222    6.0686 C   0  0  0  0  0  0  0  0  0  0  0  0
   -0.2006    0.9918    4.8732 C   0  0  0  0  0  0  0  0  0  0  0  0
   -1.1651    3.6329    7.3692 C   0  0  0  0  0  0  0  0  0  0  0  0
   -1.1430    3.1141    8.6361 C   0  0  0  0  0  0  0  0  0  0  0  0
   -1.4644    3.9365    9.6943 C   0  0  0  0  0  0  0  0  0  0  0  0
   -1.8023    5.2281    9.4491 C   0  0  0  0  0  0  0  0  0  0  0  0
   -1.6641    5.3202    7.6717 S   0  0  0  0  0  0  0  0  0  0  0  0
   -2.1892    6.2937   10.4143 N   0  3  0  0  0  0  0  0  0  0  0  0
   -2.2314    6.0492   11.6067 O   0  0  0  0  0  0  0  0  0  0  0  0
   -2.4636    7.4099   10.0114 O   0  5  0  0  0  0  0  0  0  0  0  0
   -0.0127    1.0858    0.0080 C   0  0  0  0  0  0  0  0  0  0  0  0
   -2.1623    1.0445    1.2783 C   0  0  0  0  0  0  0  0  0  0  0  0
    0.2334    5.6704    2.3331 H   0  0  0  0  0  0  0  0  0  0  0  0
   -1.3406    5.6091    1.5042 H   0  0  0  0  0  0  0  0  0  0  0  0
   -1.2718    5.6392    3.2826 H   0  0  0  0  0  0  0  0  0  0  0  0
   -0.8001    3.6148    0.3272 H   0  0  0  0  0  0  0  0  0  0  0  0
    0.6264    0.3692    2.3878 H   0  0  0  0  0  0  0  0  0  0  0  0
   -1.2421    4.7241    4.9013 H   0  0  0  0  0  0  0  0  0  0  0  0
   -0.4144    1.0728    6.9957 H   0  0  0  0  0  0  0  0  0  0  0  0
    0.0903   -0.0483    4.8659 H   0  0  0  0  0  0  0  0  0  0  0  0
   -0.8759    2.0810    8.8032 H   0  0  0  0  0  0  0  0  0  0  0  0
   -1.4514    3.5572   10.7054 H   0  0  0  0  0  0  0  0  0  0  0  0
    0.0021   -0.0041    0.0020 H   0  0  0  0  0  0  0  0  0  0  0  0
    1.0099    1.4631    0.0003 H   0  0  0  0  0  0  0  0  0  0  0  0
   -0.5399    1.4469   -0.8751 H   0  0  0  0  0  0  0  0  0  0  0  0
   -2.1436   -0.0453    1.2736 H   0  0  0  0  0  0  0  0  0  0  0  0
   -2.6738    1.3952    2.1746 H   0  0  0  0  0  0  0  0  0  0  0  0
   -2.6908    1.4026    0.3947 H   0  0  0  0  0  0  0  0  0  0  0  0
  1  2  1  0  0  0  0
  1 22  1  0  0  0  0
  1 23  1  0  0  0  0
  1 24  1  0  0  0  0
  2  7  1  0  0  0  0
  2  3  2  0  0  0  0
  3  4  1  0  0  0  0
  3 25  1  0  0  0  0
  4  5  1  0  0  0  0
  4 20  1  0  0  0  0
  4 21  1  0  0  0  0
  5  6  1  0  0  0  0
  5 26  1  0  0  0  0
  6 11  2  0  0  0  0
  6  7  1  0  0  0  0
  7  8  2  0  0  0  0
  8  9  1  0  0  0  0
  8 27  1  0  0  0  0
  9 10  2  0  0  0  0
  9 12  1  0  0  0  0
 10 11  1  0  0  0  0
 10 28  1  0  0  0  0
 11 29  1  0  0  0  0
 12 16  1  0  0  0  0
 12 13  2  0  0  0  0
 13 14  1  0  0  0  0
 13 30  1  0  0  0  0
 14 15  2  0  0  0  0
 14 31  1  0  0  0  0
 15 16  1  0  0  0  0
 15 17  1  0  0  0  0
 17 18  2  0  0  0  0
 17 19  1  0  0  0  0
 20 32  1  0  0  0  0
 20 33  1  0  0  0  0
 20 34  1  0  0  0  0
 21 35  1  0  0  0  0
 21 36  1  0  0  0  0
 21 37  1  0  0  0  0
M  CHG  2  17   1  19  -1
M  END
$$$$
