ZINC04628810
  -OEChem-08230709403D

 51 55  0     0  0  0  0  0  0999 V2000
   -2.2107   -1.9817    2.7135 C   0  0  0  0  0  0  0  0  0  0  0  0
   -3.5929   -2.3243    2.0964 C   0  0  0  0  0  0  0  0  0  0  0  0
   -4.6205   -2.2506    2.7443 C   0  0  0  0  0  0  0  0  0  0  0  0
   -6.0254   -2.6275    2.3234 C   0  0  0  0  0  0  0  0  0  0  0  0
   -5.9601   -3.1948    0.9216 N   0  0  0  0  0  0  0  0  0  0  0  0
   -4.8325   -3.3301    0.1892 C   0  0  0  0  0  0  0  0  0  0  0  0
   -3.6135   -2.8073    0.6377 C   0  0  0  0  0  0  0  0  0  0  0  0
   -2.5484   -2.8456   -0.2040 C   0  0  0  0  0  0  0  0  0  0  0  0
   -2.4814   -3.7726   -1.2732 C   0  0  0  0  0  0  0  0  0  0  0  0
   -3.6899   -4.3349   -1.7153 C   0  0  0  0  0  0  0  0  0  0  0  0
   -4.8603   -4.1160   -0.9604 C   0  0  0  0  0  0  0  0  0  0  0  0
   -1.2266   -4.0634   -1.8835 C   0  0  0  0  0  0  0  0  0  0  0  0
   -1.1275   -4.8420   -3.0942 C   0  0  0  0  0  0  0  0  0  0  0  0
    0.0544   -5.1177   -3.6293 C   0  0  0  0  0  0  0  0  0  0  0  0
    1.2299   -4.5913   -2.9907 C   0  0  0  0  0  0  0  0  0  0  0  0
    1.2294   -3.8525   -1.9120 C   0  0  0  0  0  0  0  0  0  0  0  0
   -0.0639   -3.5231   -1.2946 C   0  0  0  0  0  0  0  0  0  0  0  0
   -0.1551   -2.7226   -0.2272 O   0  0  0  0  0  0  0  0  0  0  0  0
   -1.2417   -2.1057   -0.0998 C   0  0  0  0  0  0  0  0  0  0  0  0
   -1.2601   -0.7600    0.0095 C   0  0  0  0  0  0  0  0  0  0  0  0
   -0.0143   -0.0272    0.2844 C   0  0  0  0  0  0  0  0  0  0  0  0
    1.1605   -0.7259    0.5819 C   0  0  0  0  0  0  0  0  0  0  0  0
    2.3252   -0.0340    0.8382 C   0  0  0  0  0  0  0  0  0  0  0  0
    2.3348    1.3511    0.8023 C   0  0  0  0  0  0  0  0  0  0  0  0
    1.1735    2.0517    0.5073 C   0  0  0  0  0  0  0  0  0  0  0  0
    0.0005    1.3706    0.2488 C   0  0  0  0  0  0  0  0  0  0  0  0
    1.1907    3.4022    0.4736 F   0  0  0  0  0  0  0  0  0  0  0  0
    3.4797    2.0226    1.0544 F   0  0  0  0  0  0  0  0  0  0  0  0
   -6.9375   -1.4682    2.3607 C   0  0  0  0  0  0  0  0  0  0  0  0
   -6.5914   -3.6903    3.2120 C   0  0  0  0  0  0  0  0  0  0  0  0
   -1.9849   -0.9299    2.5377 H   0  0  0  0  0  0  0  0  0  0  0  0
   -2.2340   -2.1739    3.7862 H   0  0  0  0  0  0  0  0  0  0  0  0
   -1.4424   -2.6006    2.2501 H   0  0  0  0  0  0  0  0  0  0  0  0
   -4.5381   -1.8799    3.8207 H   0  0  0  0  0  0  0  0  0  0  0  0
   -6.8303   -3.3635    0.5236 H   0  0  0  0  0  0  0  0  0  0  0  0
   -3.7131   -4.9784   -2.5753 H   0  0  0  0  0  0  0  0  0  0  0  0
   -5.7922   -4.4655   -1.3771 H   0  0  0  0  0  0  0  0  0  0  0  0
   -2.0528   -5.1632   -3.5572 H   0  0  0  0  0  0  0  0  0  0  0  0
    0.2107   -5.6986   -4.5231 H   0  0  0  0  0  0  0  0  0  0  0  0
    2.2041   -4.8782   -3.4661 H   0  0  0  0  0  0  0  0  0  0  0  0
    2.1346   -3.5023   -1.4130 H   0  0  0  0  0  0  0  0  0  0  0  0
   -2.1893   -0.2216   -0.1048 H   0  0  0  0  0  0  0  0  0  0  0  0
    1.1550   -1.8055    0.6112 H   0  0  0  0  0  0  0  0  0  0  0  0
    3.2324   -0.5731    1.0680 H   0  0  0  0  0  0  0  0  0  0  0  0
   -0.9020    1.9159    0.0153 H   0  0  0  0  0  0  0  0  0  0  0  0
   -7.9358   -1.7814    2.0552 H   0  0  0  0  0  0  0  0  0  0  0  0
   -6.9762   -1.0688    3.3741 H   0  0  0  0  0  0  0  0  0  0  0  0
   -6.5742   -0.6981    1.6803 H   0  0  0  0  0  0  0  0  0  0  0  0
   -5.9454   -4.5678    3.1857 H   0  0  0  0  0  0  0  0  0  0  0  0
   -6.6531   -3.3150    4.2335 H   0  0  0  0  0  0  0  0  0  0  0  0
   -7.5879   -3.9621    2.8640 H   0  0  0  0  0  0  0  0  0  0  0  0
  1  2  1  0  0  0  0
  1 31  1  0  0  0  0
  1 32  1  0  0  0  0
  1 33  1  0  0  0  0
  2  7  1  0  0  0  0
  2  3  2  0  0  0  0
  3  4  1  0  0  0  0
  3 34  1  0  0  0  0
  4  5  1  0  0  0  0
  4 29  1  0  0  0  0
  4 30  1  0  0  0  0
  5  6  1  0  0  0  0
  5 35  1  0  0  0  0
  6 11  2  0  0  0  0
  6  7  1  0  0  0  0
  7  8  2  0  0  0  0
  8 19  1  0  0  0  0
  8  9  1  0  0  0  0
  9 10  2  0  0  0  0
  9 12  1  0  0  0  0
 10 11  1  0  0  0  0
 10 36  1  0  0  0  0
 11 37  1  0  0  0  0
 12 17  2  0  0  0  0
 12 13  1  0  0  0  0
 13 14  2  0  0  0  0
 13 38  1  0  0  0  0
 14 15  1  0  0  0  0
 14 39  1  0  0  0  0
 15 16  2  0  0  0  0
 15 40  1  0  0  0  0
 16 17  1  0  0  0  0
 16 41  1  0  0  0  0
 17 18  1  0  0  0  0
 18 19  1  0  0  0  0
 19 20  2  0  0  0  0
 20 21  1  0  0  0  0
 20 42  1  0  0  0  0
 21 26  2  0  0  0  0
 21 22  1  0  0  0  0
 22 23  2  0  0  0  0
 22 43  1  0  0  0  0
 23 24  1  0  0  0  0
 23 44  1  0  0  0  0
 24 25  2  0  0  0  0
 24 28  1  0  0  0  0
 25 26  1  0  0  0  0
 25 27  1  0  0  0  0
 26 45  1  0  0  0  0
 29 46  1  0  0  0  0
 29 47  1  0  0  0  0
 29 48  1  0  0  0  0
 30 49  1  0  0  0  0
 30 50  1  0  0  0  0
 30 51  1  0  0  0  0
M  END
$$$$
