ZINC03831989
  -OEChem-08230709403D

 51 55  0     1  0  0  0  0  0999 V2000
   -2.5307    1.1377   -0.4241 C   0  0  0  0  0  0  0  0  0  0  0  0
   -1.4041    2.0682    0.0296 C   0  0  2  0  0  0  0  0  0  0  0  0
   -1.5925    2.3923    0.9567 H   0  0  0  0  0  0  0  0  0  0  0  0
   -1.3203    3.2455   -0.9037 C   0  0  0  0  0  0  0  0  0  0  0  0
   -0.1084    3.6979   -1.4059 C   0  0  0  0  0  0  0  0  0  0  0  0
   -0.0719    4.8091   -2.2484 C   0  0  0  0  0  0  0  0  0  0  0  0
   -1.2364    5.4606   -2.5967 C   0  0  0  0  0  0  0  0  0  0  0  0
   -2.4490    5.0014   -2.1025 C   0  0  0  0  0  0  0  0  0  0  0  0
   -2.4883    3.8912   -1.2546 C   0  0  0  0  0  0  0  0  0  0  0  0
   -3.8201    3.4201   -0.7298 C   0  0  1  0  0  0  0  0  0  0  0  0
   -3.6778    2.9365    0.2367 H   0  0  0  0  0  0  0  0  0  0  0  0
   -4.7046    4.5331   -0.5783 O   0  0  0  0  0  0  0  0  0  0  0  0
   -4.8442    5.3801   -1.6300 C   0  0  0  0  0  0  0  0  0  0  0  0
   -3.7357    5.6529   -2.4442 C   0  0  0  0  0  0  0  0  0  0  0  0
   -3.8583    6.5108   -3.5272 C   0  0  0  0  0  0  0  0  0  0  0  0
   -5.0799    7.0990   -3.7970 C   0  0  0  0  0  0  0  0  0  0  0  0
   -6.1734    6.8335   -2.9917 C   0  0  0  0  0  0  0  0  0  0  0  0
   -6.0598    5.9772   -1.9117 C   0  0  0  0  0  0  0  0  0  0  0  0
   -4.4199    2.4345   -1.6992 C   0  0  0  0  0  0  0  0  0  0  0  0
   -5.5952    1.7796   -1.3804 C   0  0  0  0  0  0  0  0  0  0  0  0
   -6.1466    0.8754   -2.2686 C   0  0  0  0  0  0  0  0  0  0  0  0
   -5.5234    0.6247   -3.4766 C   0  0  0  0  0  0  0  0  0  0  0  0
   -4.3466    1.2798   -3.7969 C   0  0  0  0  0  0  0  0  0  0  0  0
   -3.7982    2.1897   -2.9086 C   0  0  0  0  0  0  0  0  0  0  0  0
   -3.7369    1.0359   -4.9775 F   0  0  0  0  0  0  0  0  0  0  0  0
    1.1020    3.0703   -1.0962 N   0  0  0  0  0  0  0  0  0  0  0  0
    1.1775    2.1436    0.0407 C   0  0  0  0  0  0  0  0  0  0  0  0
   -0.0937    1.3153    0.0183 C   0  0  0  0  0  0  0  0  0  0  0  0
   -0.0599    0.1086   -0.0124 O   0  0  0  0  0  0  0  0  0  0  0  0
    1.2663    2.9293    1.3506 C   0  0  0  0  0  0  0  0  0  0  0  0
    2.3977    1.2322   -0.1055 C   0  0  0  0  0  0  0  0  0  0  0  0
   -2.3412    0.1302   -0.0539 H   0  0  0  0  0  0  0  0  0  0  0  0
   -3.4806    1.4974   -0.0285 H   0  0  0  0  0  0  0  0  0  0  0  0
   -2.5731    1.1226   -1.5132 H   0  0  0  0  0  0  0  0  0  0  0  0
    0.8748    5.1618   -2.6302 H   0  0  0  0  0  0  0  0  0  0  0  0
   -1.2049    6.3212   -3.2484 H   0  0  0  0  0  0  0  0  0  0  0  0
   -3.0047    6.7183   -4.1555 H   0  0  0  0  0  0  0  0  0  0  0  0
   -5.1810    7.7680   -4.6387 H   0  0  0  0  0  0  0  0  0  0  0  0
   -7.1238    7.2985   -3.2088 H   0  0  0  0  0  0  0  0  0  0  0  0
   -6.9187    5.7752   -1.2889 H   0  0  0  0  0  0  0  0  0  0  0  0
   -6.0830    1.9751   -0.4369 H   0  0  0  0  0  0  0  0  0  0  0  0
   -7.0648    0.3647   -2.0187 H   0  0  0  0  0  0  0  0  0  0  0  0
   -5.9546   -0.0816   -4.1706 H   0  0  0  0  0  0  0  0  0  0  0  0
   -2.8825    2.7047   -3.1593 H   0  0  0  0  0  0  0  0  0  0  0  0
    1.8912    3.2466   -1.6319 H   0  0  0  0  0  0  0  0  0  0  0  0
    1.2756    2.2350    2.1908 H   0  0  0  0  0  0  0  0  0  0  0  0
    2.1818    3.5209    1.3580 H   0  0  0  0  0  0  0  0  0  0  0  0
    0.4050    3.5917    1.4360 H   0  0  0  0  0  0  0  0  0  0  0  0
    2.3374    0.6931   -1.0509 H   0  0  0  0  0  0  0  0  0  0  0  0
    3.3056    1.8352   -0.0883 H   0  0  0  0  0  0  0  0  0  0  0  0
    2.4195    0.5192    0.7186 H   0  0  0  0  0  0  0  0  0  0  0  0
  1  2  1  0  0  0  0
  1 32  1  0  0  0  0
  1 33  1  0  0  0  0
  1 34  1  0  0  0  0
  2  3  1  0  0  0  0
  2 28  1  0  0  0  0
  2  4  1  0  0  0  0
  4  9  2  0  0  0  0
  4  5  1  0  0  0  0
  5  6  2  0  0  0  0
  5 26  1  0  0  0  0
  6  7  1  0  0  0  0
  6 35  1  0  0  0  0
  7  8  2  0  0  0  0
  7 36  1  0  0  0  0
  8 14  1  0  0  0  0
  8  9  1  0  0  0  0
  9 10  1  0  0  0  0
 10 11  1  0  0  0  0
 10 12  1  0  0  0  0
 10 19  1  0  0  0  0
 12 13  1  0  0  0  0
 13 18  2  0  0  0  0
 13 14  1  0  0  0  0
 14 15  2  0  0  0  0
 15 16  1  0  0  0  0
 15 37  1  0  0  0  0
 16 17  2  0  0  0  0
 16 38  1  0  0  0  0
 17 18  1  0  0  0  0
 17 39  1  0  0  0  0
 18 40  1  0  0  0  0
 19 24  2  0  0  0  0
 19 20  1  0  0  0  0
 20 21  2  0  0  0  0
 20 41  1  0  0  0  0
 21 22  1  0  0  0  0
 21 42  1  0  0  0  0
 22 23  2  0  0  0  0
 22 43  1  0  0  0  0
 23 24  1  0  0  0  0
 23 25  1  0  0  0  0
 24 44  1  0  0  0  0
 26 27  1  0  0  0  0
 26 45  1  0  0  0  0
 27 28  1  0  0  0  0
 27 30  1  0  0  0  0
 27 31  1  0  0  0  0
 28 29  2  0  0  0  0
 30 46  1  0  0  0  0
 30 47  1  0  0  0  0
 30 48  1  0  0  0  0
 31 49  1  0  0  0  0
 31 50  1  0  0  0  0
 31 51  1  0  0  0  0
M  END
$$$$
