ZINC03831948
  -OEChem-08230709403D

 53 57  0     1  0  0  0  0  0999 V2000
   -4.1585    0.9766   -2.7795 C   0  0  0  0  0  0  0  0  0  0  0  0
   -2.7572    1.4777   -2.5419 C   0  0  0  0  0  0  0  0  0  0  0  0
   -2.0438    1.0396   -1.4416 C   0  0  0  0  0  0  0  0  0  0  0  0
   -0.7603    1.5026   -1.2206 C   0  0  0  0  0  0  0  0  0  0  0  0
   -0.1856    2.3958   -2.1053 C   0  0  0  0  0  0  0  0  0  0  0  0
   -0.8969    2.8303   -3.2090 C   0  0  0  0  0  0  0  0  0  0  0  0
   -2.1835    2.3706   -3.4269 C   0  0  0  0  0  0  0  0  0  0  0  0
   -0.1111    4.0516   -4.4200 Br  0  0  0  0  0  0  0  0  0  0  0  0
    0.0149    1.0288   -0.0182 C   0  0  1  0  0  0  0  0  0  0  0  0
    0.3382    0.0002   -0.1785 H   0  0  0  0  0  0  0  0  0  0  0  0
    1.2223    1.9078    0.1764 C   0  0  0  0  0  0  0  0  0  0  0  0
    1.1030    3.0611    0.9571 C   0  0  0  0  0  0  0  0  0  0  0  0
    2.1978    3.8915    1.1630 C   0  0  0  0  0  0  0  0  0  0  0  0
    3.4182    3.5825    0.5898 C   0  0  0  0  0  0  0  0  0  0  0  0
    3.5468    2.4462   -0.1891 C   0  0  0  0  0  0  0  0  0  0  0  0
    2.4427    1.6009   -0.4023 C   0  0  0  0  0  0  0  0  0  0  0  0
    2.6204    0.4026   -1.2466 C   0  0  0  0  0  0  0  0  0  0  0  0
    3.8434   -0.0269   -1.5296 C   0  0  0  0  0  0  0  0  0  0  0  0
    5.0594    0.6785   -0.9907 C   0  0  0  0  0  0  0  0  0  0  0  0
    4.7625    2.1015   -0.7827 N   0  0  0  0  0  0  0  0  0  0  0  0
    5.4659    0.0445    0.3411 C   0  0  0  0  0  0  0  0  0  0  0  0
    6.2099    0.5427   -1.9901 C   0  0  0  0  0  0  0  0  0  0  0  0
    1.4179   -0.3290   -1.7850 C   0  0  0  0  0  0  0  0  0  0  0  0
   -0.2266    3.3580    1.5420 C   0  0  0  0  0  0  0  0  0  0  0  0
   -0.5542    4.6218    2.0107 C   0  0  0  0  0  0  0  0  0  0  0  0
   -1.8078    4.8465    2.5483 C   0  0  0  0  0  0  0  0  0  0  0  0
   -2.7297    3.8170    2.6196 C   0  0  0  0  0  0  0  0  0  0  0  0
   -2.4106    2.5544    2.1539 C   0  0  0  0  0  0  0  0  0  0  0  0
   -1.1609    2.3152    1.6114 C   0  0  0  0  0  0  0  0  0  0  0  0
   -0.8236    1.0881    1.1384 O   0  0  0  0  0  0  0  0  0  0  0  0
   -4.1228    0.0715   -3.3858 H   0  0  0  0  0  0  0  0  0  0  0  0
   -4.6321    0.7548   -1.8231 H   0  0  0  0  0  0  0  0  0  0  0  0
   -4.7342    1.7411   -3.3013 H   0  0  0  0  0  0  0  0  0  0  0  0
   -2.4908    0.3384   -0.7525 H   0  0  0  0  0  0  0  0  0  0  0  0
    0.8187    2.7546   -1.9346 H   0  0  0  0  0  0  0  0  0  0  0  0
   -2.7395    2.7099   -4.2884 H   0  0  0  0  0  0  0  0  0  0  0  0
    2.0959    4.7785    1.7707 H   0  0  0  0  0  0  0  0  0  0  0  0
    4.2695    4.2276    0.7497 H   0  0  0  0  0  0  0  0  0  0  0  0
    3.9688   -0.8969   -2.1571 H   0  0  0  0  0  0  0  0  0  0  0  0
    5.3958    2.7854   -1.0512 H   0  0  0  0  0  0  0  0  0  0  0  0
    5.6953   -1.0098    0.1865 H   0  0  0  0  0  0  0  0  0  0  0  0
    6.3462    0.5543    0.7324 H   0  0  0  0  0  0  0  0  0  0  0  0
    4.6457    0.1373    1.0530 H   0  0  0  0  0  0  0  0  0  0  0  0
    5.9204    0.9907   -2.9406 H   0  0  0  0  0  0  0  0  0  0  0  0
    7.0911    1.0530   -1.6013 H   0  0  0  0  0  0  0  0  0  0  0  0
    6.4379   -0.5126   -2.1403 H   0  0  0  0  0  0  0  0  0  0  0  0
    0.6308    0.3880   -2.0182 H   0  0  0  0  0  0  0  0  0  0  0  0
    1.6965   -0.8697   -2.6895 H   0  0  0  0  0  0  0  0  0  0  0  0
    1.0568   -1.0345   -1.0366 H   0  0  0  0  0  0  0  0  0  0  0  0
    0.1654    5.4253    1.9556 H   0  0  0  0  0  0  0  0  0  0  0  0
   -2.0683    5.8286    2.9144 H   0  0  0  0  0  0  0  0  0  0  0  0
   -3.7062    4.0009    3.0426 H   0  0  0  0  0  0  0  0  0  0  0  0
   -3.1359    1.7565    2.2141 H   0  0  0  0  0  0  0  0  0  0  0  0
  1  2  1  0  0  0  0
  1 31  1  0  0  0  0
  1 32  1  0  0  0  0
  1 33  1  0  0  0  0
  2  7  2  0  0  0  0
  2  3  1  0  0  0  0
  3  4  2  0  0  0  0
  3 34  1  0  0  0  0
  4  5  1  0  0  0  0
  4  9  1  0  0  0  0
  5  6  2  0  0  0  0
  5 35  1  0  0  0  0
  6  7  1  0  0  0  0
  6  8  1  0  0  0  0
  7 36  1  0  0  0  0
  9 10  1  0  0  0  0
  9 30  1  0  0  0  0
  9 11  1  0  0  0  0
 11 16  2  0  0  0  0
 11 12  1  0  0  0  0
 12 13  2  0  0  0  0
 12 24  1  0  0  0  0
 13 14  1  0  0  0  0
 13 37  1  0  0  0  0
 14 15  2  0  0  0  0
 14 38  1  0  0  0  0
 15 20  1  0  0  0  0
 15 16  1  0  0  0  0
 16 17  1  0  0  0  0
 17 18  2  0  0  0  0
 17 23  1  0  0  0  0
 18 19  1  0  0  0  0
 18 39  1  0  0  0  0
 19 20  1  0  0  0  0
 19 21  1  0  0  0  0
 19 22  1  0  0  0  0
 20 40  1  0  0  0  0
 21 41  1  0  0  0  0
 21 42  1  0  0  0  0
 21 43  1  0  0  0  0
 22 44  1  0  0  0  0
 22 45  1  0  0  0  0
 22 46  1  0  0  0  0
 23 47  1  0  0  0  0
 23 48  1  0  0  0  0
 23 49  1  0  0  0  0
 24 29  2  0  0  0  0
 24 25  1  0  0  0  0
 25 26  2  0  0  0  0
 25 50  1  0  0  0  0
 26 27  1  0  0  0  0
 26 51  1  0  0  0  0
 27 28  2  0  0  0  0
 27 52  1  0  0  0  0
 28 29  1  0  0  0  0
 28 53  1  0  0  0  0
 29 30  1  0  0  0  0
M  END
$$$$
