ZINC01546562
  -OEChem-08230709403D

 52 55  0     1  0  0  0  0  0999 V2000
   -0.3960    9.4445    0.7715 C   0  0  0  0  0  0  0  0  0  0  0  0
   -0.2963    7.9314    0.9752 C   0  0  0  0  0  0  0  0  0  0  0  0
    0.9194    7.3938    0.2176 C   0  0  0  0  0  0  0  0  0  0  0  0
    1.0190    5.8807    0.4213 C   0  0  0  0  0  0  0  0  0  0  0  0
    2.2439    5.3390   -0.3420 C   0  0  2  0  0  0  0  0  0  0  0  0
    2.2026    5.6544   -1.3768 H   0  0  0  0  0  0  0  0  0  0  0  0
    2.2633    3.8392   -0.2373 C   0  0  0  0  0  0  0  0  0  0  0  0
    3.4803    3.2031    0.0486 C   0  0  0  0  0  0  0  0  0  0  0  0
    3.5266    1.8443    0.3461 C   0  0  0  0  0  0  0  0  0  0  0  0
    2.3669    1.0978    0.3493 C   0  0  0  0  0  0  0  0  0  0  0  0
    1.1715    1.7004   -0.0023 C   0  0  0  0  0  0  0  0  0  0  0  0
    1.1428    3.0444   -0.4236 C   0  0  0  0  0  0  0  0  0  0  0  0
   -0.0726    3.4667   -1.1446 C   0  0  0  0  0  0  0  0  0  0  0  0
   -1.2326    2.8684   -0.8642 C   0  0  0  0  0  0  0  0  0  0  0  0
   -1.2860    1.6966    0.0763 C   0  0  0  0  0  0  0  0  0  0  0  0
   -0.0137    0.9643    0.0072 N   0  0  0  0  0  0  0  0  0  0  0  0
   -2.4297    0.7657   -0.3312 C   0  0  0  0  0  0  0  0  0  0  0  0
   -1.5165    2.1906    1.5048 C   0  0  0  0  0  0  0  0  0  0  0  0
   -0.0745    4.5221   -2.2150 C   0  0  0  0  0  0  0  0  0  0  0  0
    4.7245    4.0068    0.0772 C   0  0  0  0  0  0  0  0  0  0  0  0
    5.9785    3.4178   -0.0090 C   0  0  0  0  0  0  0  0  0  0  0  0
    7.1061    4.2179   -0.0768 C   0  0  0  0  0  0  0  0  0  0  0  0
    6.9841    5.5979   -0.0482 C   0  0  0  0  0  0  0  0  0  0  0  0
    5.7390    6.1892    0.0651 C   0  0  0  0  0  0  0  0  0  0  0  0
    4.6066    5.3989    0.1459 C   0  0  0  0  0  0  0  0  0  0  0  0
    3.3774    5.9366    0.2949 O   0  0  0  0  0  0  0  0  0  0  0  0
    8.3294    3.6516   -0.1674 F   0  0  0  0  0  0  0  0  0  0  0  0
    0.5080    9.9223    1.1492 H   0  0  0  0  0  0  0  0  0  0  0  0
   -0.5048    9.6617   -0.2911 H   0  0  0  0  0  0  0  0  0  0  0  0
   -1.2621    9.8276    1.3111 H   0  0  0  0  0  0  0  0  0  0  0  0
   -1.2003    7.4537    0.5974 H   0  0  0  0  0  0  0  0  0  0  0  0
   -0.1875    7.7143    2.0377 H   0  0  0  0  0  0  0  0  0  0  0  0
    1.8233    7.8716    0.5954 H   0  0  0  0  0  0  0  0  0  0  0  0
    0.8106    7.6110   -0.8450 H   0  0  0  0  0  0  0  0  0  0  0  0
    0.1151    5.4029    0.0435 H   0  0  0  0  0  0  0  0  0  0  0  0
    1.1278    5.6635    1.4839 H   0  0  0  0  0  0  0  0  0  0  0  0
    4.4728    1.3746    0.5719 H   0  0  0  0  0  0  0  0  0  0  0  0
    2.3877    0.0536    0.6217 H   0  0  0  0  0  0  0  0  0  0  0  0
   -2.1312    3.2065   -1.3540 H   0  0  0  0  0  0  0  0  0  0  0  0
   -0.0024   -0.0042    0.0019 H   0  0  0  0  0  0  0  0  0  0  0  0
   -2.4630   -0.0873    0.3466 H   0  0  0  0  0  0  0  0  0  0  0  0
   -3.3744    1.3071   -0.2806 H   0  0  0  0  0  0  0  0  0  0  0  0
   -2.2666    0.4140   -1.3499 H   0  0  0  0  0  0  0  0  0  0  0  0
   -0.7012    2.8528    1.7962 H   0  0  0  0  0  0  0  0  0  0  0  0
   -2.4605    2.7334    1.5537 H   0  0  0  0  0  0  0  0  0  0  0  0
   -1.5521    1.3379    2.1829 H   0  0  0  0  0  0  0  0  0  0  0  0
    0.9166    4.5857   -2.6643 H   0  0  0  0  0  0  0  0  0  0  0  0
   -0.8046    4.2613   -2.9811 H   0  0  0  0  0  0  0  0  0  0  0  0
   -0.3367    5.4846   -1.7758 H   0  0  0  0  0  0  0  0  0  0  0  0
    6.0759    2.3429   -0.0373 H   0  0  0  0  0  0  0  0  0  0  0  0
    7.8671    6.2159   -0.1148 H   0  0  0  0  0  0  0  0  0  0  0  0
    5.6510    7.2650    0.0903 H   0  0  0  0  0  0  0  0  0  0  0  0
  1  2  1  0  0  0  0
  1 28  1  0  0  0  0
  1 29  1  0  0  0  0
  1 30  1  0  0  0  0
  2  3  1  0  0  0  0
  2 31  1  0  0  0  0
  2 32  1  0  0  0  0
  3  4  1  0  0  0  0
  3 33  1  0  0  0  0
  3 34  1  0  0  0  0
  4  5  1  0  0  0  0
  4 35  1  0  0  0  0
  4 36  1  0  0  0  0
  5  6  1  0  0  0  0
  5 26  1  0  0  0  0
  5  7  1  0  0  0  0
  7 12  2  0  0  0  0
  7  8  1  0  0  0  0
  8  9  2  0  0  0  0
  8 20  1  0  0  0  0
  9 10  1  0  0  0  0
  9 37  1  0  0  0  0
 10 11  2  0  0  0  0
 10 38  1  0  0  0  0
 11 16  1  0  0  0  0
 11 12  1  0  0  0  0
 12 13  1  0  0  0  0
 13 14  2  0  0  0  0
 13 19  1  0  0  0  0
 14 15  1  0  0  0  0
 14 39  1  0  0  0  0
 15 16  1  0  0  0  0
 15 17  1  0  0  0  0
 15 18  1  0  0  0  0
 16 40  1  0  0  0  0
 17 41  1  0  0  0  0
 17 42  1  0  0  0  0
 17 43  1  0  0  0  0
 18 44  1  0  0  0  0
 18 45  1  0  0  0  0
 18 46  1  0  0  0  0
 19 47  1  0  0  0  0
 19 48  1  0  0  0  0
 19 49  1  0  0  0  0
 20 25  2  0  0  0  0
 20 21  1  0  0  0  0
 21 22  2  0  0  0  0
 21 50  1  0  0  0  0
 22 23  1  0  0  0  0
 22 27  1  0  0  0  0
 23 24  2  0  0  0  0
 23 51  1  0  0  0  0
 24 25  1  0  0  0  0
 24 52  1  0  0  0  0
 25 26  1  0  0  0  0
M  END
$$$$
