ZINC02003450
  -OEChem-08230709403D

 53 57  0     1  0  0  0  0  0999 V2000
    3.7814    0.3949   -1.8325 C   0  0  0  0  0  0  0  0  0  0  0  0
    3.6727    0.2784   -0.3339 C   0  0  0  0  0  0  0  0  0  0  0  0
    3.8346    1.3984    0.4601 C   0  0  0  0  0  0  0  0  0  0  0  0
    3.7344    1.2919    1.8345 C   0  0  0  0  0  0  0  0  0  0  0  0
    3.4779    0.0642    2.4164 C   0  0  0  0  0  0  0  0  0  0  0  0
    3.3103   -1.0551    1.6234 C   0  0  0  0  0  0  0  0  0  0  0  0
    3.4104   -0.9491    0.2474 C   0  0  0  0  0  0  0  0  0  0  0  0
    3.2075   -2.3561   -0.7490 Cl  0  0  0  0  0  0  0  0  0  0  0  0
    3.9110    2.5132    2.6995 C   0  0  2  0  0  0  0  0  0  0  0  0
    3.7574    2.2450    3.7413 H   0  0  0  0  0  0  0  0  0  0  0  0
    2.9136    3.5580    2.2765 C   0  0  0  0  0  0  0  0  0  0  0  0
    3.3847    4.8304    1.9365 C   0  0  0  0  0  0  0  0  0  0  0  0
    2.6014    5.7154    1.2063 C   0  0  0  0  0  0  0  0  0  0  0  0
    1.3375    5.3290    0.8074 C   0  0  0  0  0  0  0  0  0  0  0  0
    0.8304    4.1104    1.2238 C   0  0  0  0  0  0  0  0  0  0  0  0
    1.5675    3.2746    2.0915 C   0  0  0  0  0  0  0  0  0  0  0  0
    0.8610    2.1119    2.6476 C   0  0  0  0  0  0  0  0  0  0  0  0
   -0.2252    1.6380    2.0469 C   0  0  0  0  0  0  0  0  0  0  0  0
   -0.7347    2.2433    0.7692 C   0  0  0  0  0  0  0  0  0  0  0  0
   -0.3902    3.6657    0.7152 N   0  0  0  0  0  0  0  0  0  0  0  0
   -0.1077    1.5192   -0.4246 C   0  0  0  0  0  0  0  0  0  0  0  0
   -2.2569    2.0877    0.7074 C   0  0  0  0  0  0  0  0  0  0  0  0
    1.2800    1.4615    3.9430 C   0  0  0  0  0  0  0  0  0  0  0  0
    4.7283    5.2327    2.4186 C   0  0  0  0  0  0  0  0  0  0  0  0
    5.0860    6.5619    2.5864 C   0  0  0  0  0  0  0  0  0  0  0  0
    6.3525    6.8733    3.0520 C   0  0  0  0  0  0  0  0  0  0  0  0
    7.2526    5.8631    3.3501 C   0  0  0  0  0  0  0  0  0  0  0  0
    6.8998    4.5362    3.1841 C   0  0  0  0  0  0  0  0  0  0  0  0
    5.6382    4.2111    2.7170 C   0  0  0  0  0  0  0  0  0  0  0  0
    5.2630    2.9310    2.5260 O   0  0  0  0  0  0  0  0  0  0  0  0
    6.7110    8.1655    3.2163 F   0  0  0  0  0  0  0  0  0  0  0  0
    4.8163    0.2356   -2.1352 H   0  0  0  0  0  0  0  0  0  0  0  0
    3.1458   -0.3557   -2.3023 H   0  0  0  0  0  0  0  0  0  0  0  0
    3.4606    1.3890   -2.1439 H   0  0  0  0  0  0  0  0  0  0  0  0
    4.0390    2.3569    0.0063 H   0  0  0  0  0  0  0  0  0  0  0  0
    3.4042   -0.0193    3.4906 H   0  0  0  0  0  0  0  0  0  0  0  0
    3.1059   -2.0133    2.0778 H   0  0  0  0  0  0  0  0  0  0  0  0
    2.9772    6.6943    0.9525 H   0  0  0  0  0  0  0  0  0  0  0  0
    0.7458    5.9723    0.1729 H   0  0  0  0  0  0  0  0  0  0  0  0
   -0.7486    0.8033    2.4886 H   0  0  0  0  0  0  0  0  0  0  0  0
   -1.0139    4.3041    0.3236 H   0  0  0  0  0  0  0  0  0  0  0  0
   -0.3759    0.4633   -0.3908 H   0  0  0  0  0  0  0  0  0  0  0  0
    0.9768    1.6202   -0.3820 H   0  0  0  0  0  0  0  0  0  0  0  0
   -0.4775    1.9585   -1.3511 H   0  0  0  0  0  0  0  0  0  0  0  0
   -2.5157    1.0295    0.7436 H   0  0  0  0  0  0  0  0  0  0  0  0
   -2.7094    2.6016    1.5555 H   0  0  0  0  0  0  0  0  0  0  0  0
   -2.6291    2.5213   -0.2208 H   0  0  0  0  0  0  0  0  0  0  0  0
    0.6409    0.6010    4.1409 H   0  0  0  0  0  0  0  0  0  0  0  0
    2.3169    1.1341    3.8664 H   0  0  0  0  0  0  0  0  0  0  0  0
    1.1851    2.1797    4.7575 H   0  0  0  0  0  0  0  0  0  0  0  0
    4.3835    7.3500    2.3606 H   0  0  0  0  0  0  0  0  0  0  0  0
    8.2374    6.1136    3.7161 H   0  0  0  0  0  0  0  0  0  0  0  0
    7.6070    3.7547    3.4171 H   0  0  0  0  0  0  0  0  0  0  0  0
  1  2  1  0  0  0  0
  1 32  1  0  0  0  0
  1 33  1  0  0  0  0
  1 34  1  0  0  0  0
  2  7  2  0  0  0  0
  2  3  1  0  0  0  0
  3  4  2  0  0  0  0
  3 35  1  0  0  0  0
  4  5  1  0  0  0  0
  4  9  1  0  0  0  0
  5  6  2  0  0  0  0
  5 36  1  0  0  0  0
  6  7  1  0  0  0  0
  6 37  1  0  0  0  0
  7  8  1  0  0  0  0
  9 10  1  0  0  0  0
  9 30  1  0  0  0  0
  9 11  1  0  0  0  0
 11 16  2  0  0  0  0
 11 12  1  0  0  0  0
 12 13  2  0  0  0  0
 12 24  1  0  0  0  0
 13 14  1  0  0  0  0
 13 38  1  0  0  0  0
 14 15  2  0  0  0  0
 14 39  1  0  0  0  0
 15 20  1  0  0  0  0
 15 16  1  0  0  0  0
 16 17  1  0  0  0  0
 17 18  2  0  0  0  0
 17 23  1  0  0  0  0
 18 19  1  0  0  0  0
 18 40  1  0  0  0  0
 19 20  1  0  0  0  0
 19 21  1  0  0  0  0
 19 22  1  0  0  0  0
 20 41  1  0  0  0  0
 21 42  1  0  0  0  0
 21 43  1  0  0  0  0
 21 44  1  0  0  0  0
 22 45  1  0  0  0  0
 22 46  1  0  0  0  0
 22 47  1  0  0  0  0
 23 48  1  0  0  0  0
 23 49  1  0  0  0  0
 23 50  1  0  0  0  0
 24 29  2  0  0  0  0
 24 25  1  0  0  0  0
 25 26  2  0  0  0  0
 25 51  1  0  0  0  0
 26 27  1  0  0  0  0
 26 31  1  0  0  0  0
 27 28  2  0  0  0  0
 27 52  1  0  0  0  0
 28 29  1  0  0  0  0
 28 53  1  0  0  0  0
 29 30  1  0  0  0  0
M  END
$$$$
