ZINC03814181
  -OEChem-08230709403D

 59 61  0     1  0  0  0  0  0999 V2000
    0.9188    5.3430    2.9026 C   0  0  0  0  0  0  0  0  0  0  0  0
    1.7027    5.6150    1.6171 C   0  0  2  0  0  0  0  0  0  0  0  0
    1.0545    6.1101    0.8941 H   0  0  0  0  0  0  0  0  0  0  0  0
    2.2003    4.2911    1.0334 C   0  0  0  0  0  0  0  0  0  0  0  0
    1.0208    3.4534    0.6114 C   0  0  0  0  0  0  0  0  0  0  0  0
   -0.1018    3.8720    0.7619 O   0  0  0  0  0  0  0  0  0  0  0  0
    1.2424    2.0932    0.0014 C   0  0  2  0  0  0  0  0  0  0  0  0
    1.9291    1.5974    0.5330 H   0  0  0  0  0  0  0  0  0  0  0  0
    1.7312    2.2539   -1.4395 C   0  0  0  0  0  0  0  0  0  0  0  0
    2.0698    0.9004   -2.0090 C   0  0  0  0  0  0  0  0  0  0  0  0
    3.3510    0.3974   -1.8808 C   0  0  0  0  0  0  0  0  0  0  0  0
    3.6604   -0.8461   -2.3994 C   0  0  0  0  0  0  0  0  0  0  0  0
    2.6911   -1.5824   -3.0545 C   0  0  0  0  0  0  0  0  0  0  0  0
    1.4111   -1.0774   -3.1868 C   0  0  0  0  0  0  0  0  0  0  0  0
    1.1006    0.1642   -2.6644 C   0  0  0  0  0  0  0  0  0  0  0  0
   -0.0162    1.3436    0.0094 N   0  0  0  0  0  0  0  0  0  0  0  0
    0.0021   -0.0041    0.0020 C   0  0  0  0  0  0  0  0  0  0  0  0
    1.0628   -0.5974   -0.0113 O   0  0  0  0  0  0  0  0  0  0  0  0
   -1.2681   -0.7606    0.0101 C   0  0  0  0  0  0  0  0  0  0  0  0
   -2.4878   -0.0824    0.0312 C   0  0  0  0  0  0  0  0  0  0  0  0
   -3.6695   -0.7944    0.0343 C   0  0  0  0  0  0  0  0  0  0  0  0
   -3.6472   -2.1778    0.0266 C   0  0  0  0  0  0  0  0  0  0  0  0
   -2.4415   -2.8562    0.0105 C   0  0  0  0  0  0  0  0  0  0  0  0
   -1.2527   -2.1563    0.0024 C   0  0  0  0  0  0  0  0  0  0  0  0
    2.8810    6.5024    1.9256 C   0  0  0  0  0  0  0  0  0  0  0  0
    4.0078    6.1142    1.7007 O   0  0  0  0  0  0  0  0  0  0  0  0
    2.6827    7.7274    2.4514 N   0  0  0  0  0  0  0  0  0  0  0  0
    1.3725    8.3249    2.7673 C   0  0  0  0  0  0  0  0  0  0  0  0
    1.6132    9.8527    2.7369 C   0  0  0  0  0  0  0  0  0  0  0  0
    3.0393    9.9580    3.3388 C   0  0  0  0  0  0  0  0  0  0  0  0
    3.7367    8.6916    2.7989 C   0  0  1  0  0  0  0  0  0  0  0  0
    4.3198    8.9392    1.9119 H   0  0  0  0  0  0  0  0  0  0  0  0
    4.6368    8.1077    3.8572 C   0  0  0  0  0  0  0  0  0  0  0  0
    4.4259    6.9972    4.2841 O   0  0  0  0  0  0  0  0  0  0  0  0
    0.0665    4.7011    2.6794 H   0  0  0  0  0  0  0  0  0  0  0  0
    1.5670    4.8479    3.6256 H   0  0  0  0  0  0  0  0  0  0  0  0
    0.5643    6.2861    3.3184 H   0  0  0  0  0  0  0  0  0  0  0  0
    2.7280    3.7990    1.7257 H   0  0  0  0  0  0  0  0  0  0  0  0
    2.8326    4.4904    0.1682 H   0  0  0  0  0  0  0  0  0  0  0  0
    0.9469    2.7149   -2.0399 H   0  0  0  0  0  0  0  0  0  0  0  0
    2.6188    2.8864   -1.4536 H   0  0  0  0  0  0  0  0  0  0  0  0
    4.1093    0.9745   -1.3726 H   0  0  0  0  0  0  0  0  0  0  0  0
    4.6603   -1.2408   -2.2957 H   0  0  0  0  0  0  0  0  0  0  0  0
    2.9337   -2.5525   -3.4626 H   0  0  0  0  0  0  0  0  0  0  0  0
    0.6538   -1.6527   -3.6986 H   0  0  0  0  0  0  0  0  0  0  0  0
    0.1007    0.5590   -2.7682 H   0  0  0  0  0  0  0  0  0  0  0  0
   -0.8627    1.8171    0.0160 H   0  0  0  0  0  0  0  0  0  0  0  0
   -2.5065    0.9974    0.0417 H   0  0  0  0  0  0  0  0  0  0  0  0
   -4.6140   -0.2708    0.0468 H   0  0  0  0  0  0  0  0  0  0  0  0
   -4.5750   -2.7304    0.0336 H   0  0  0  0  0  0  0  0  0  0  0  0
   -2.4310   -3.9362    0.0046 H   0  0  0  0  0  0  0  0  0  0  0  0
   -0.3122   -2.6871   -0.0094 H   0  0  0  0  0  0  0  0  0  0  0  0
    0.6353    8.0416    2.0161 H   0  0  0  0  0  0  0  0  0  0  0  0
    1.0433    8.0148    3.7590 H   0  0  0  0  0  0  0  0  0  0  0  0
    0.8871   10.3768    3.3584 H   0  0  0  0  0  0  0  0  0  0  0  0
    1.5923   10.2278    1.7137 H   0  0  0  0  0  0  0  0  0  0  0  0
    3.0003    9.9421    4.4280 H   0  0  0  0  0  0  0  0  0  0  0  0
    3.5427   10.8569    2.9830 H   0  0  0  0  0  0  0  0  0  0  0  0
    5.6728    8.8212    4.3255 O   0  5  0  0  0  0  0  0  0  0  0  0
  1  2  1  0  0  0  0
  1 35  1  0  0  0  0
  1 36  1  0  0  0  0
  1 37  1  0  0  0  0
  2  3  1  0  0  0  0
  2  4  1  0  0  0  0
  2 25  1  0  0  0  0
  4  5  1  0  0  0  0
  4 38  1  0  0  0  0
  4 39  1  0  0  0  0
  5  6  2  0  0  0  0
  5  7  1  0  0  0  0
  7  8  1  0  0  0  0
  7  9  1  0  0  0  0
  7 16  1  0  0  0  0
  9 10  1  0  0  0  0
  9 40  1  0  0  0  0
  9 41  1  0  0  0  0
 10 15  2  0  0  0  0
 10 11  1  0  0  0  0
 11 12  2  0  0  0  0
 11 42  1  0  0  0  0
 12 13  1  0  0  0  0
 12 43  1  0  0  0  0
 13 14  2  0  0  0  0
 13 44  1  0  0  0  0
 14 15  1  0  0  0  0
 14 45  1  0  0  0  0
 15 46  1  0  0  0  0
 16 17  1  0  0  0  0
 16 47  1  0  0  0  0
 17 18  2  0  0  0  0
 17 19  1  0  0  0  0
 19 24  2  0  0  0  0
 19 20  1  0  0  0  0
 20 21  2  0  0  0  0
 20 48  1  0  0  0  0
 21 22  1  0  0  0  0
 21 49  1  0  0  0  0
 22 23  2  0  0  0  0
 22 50  1  0  0  0  0
 23 24  1  0  0  0  0
 23 51  1  0  0  0  0
 24 52  1  0  0  0  0
 25 26  2  0  0  0  0
 25 27  1  0  0  0  0
 27 31  1  0  0  0  0
 27 28  1  0  0  0  0
 28 29  1  0  0  0  0
 28 53  1  0  0  0  0
 28 54  1  0  0  0  0
 29 30  1  0  0  0  0
 29 55  1  0  0  0  0
 29 56  1  0  0  0  0
 30 31  1  0  0  0  0
 30 57  1  0  0  0  0
 30 58  1  0  0  0  0
 31 32  1  0  0  0  0
 31 33  1  0  0  0  0
 33 34  2  0  0  0  0
 33 59  1  0  0  0  0
M  CHG  1  59  -1
M  END
$$$$
