ZINC03814183
  -OEChem-08230709403D

 49 50  0     1  0  0  0  0  0999 V2000
   -0.0619    4.5606   -0.0365 C   0  0  0  0  0  0  0  0  0  0  0  0
    0.9624    4.1501    1.0233 C   0  0  1  0  0  0  0  0  0  0  0  0
    0.4444    3.7338    1.8872 H   0  0  0  0  0  0  0  0  0  0  0  0
    1.8926    3.1135    0.4478 C   0  0  0  0  0  0  0  0  0  0  0  0
    3.0838    3.3338    0.3885 O   0  0  0  0  0  0  0  0  0  0  0  0
    1.4009    1.9416   -0.0009 N   0  0  0  0  0  0  0  0  0  0  0  0
   -0.0189    1.5449    0.0105 C   0  0  0  0  0  0  0  0  0  0  0  0
    0.0021   -0.0041    0.0020 C   0  0  0  0  0  0  0  0  0  0  0  0
    1.2112   -0.2941   -0.9261 C   0  0  0  0  0  0  0  0  0  0  0  0
    2.1914    0.8475   -0.5836 C   0  0  1  0  0  0  0  0  0  0  0  0
    2.9296    0.4982    0.1383 H   0  0  0  0  0  0  0  0  0  0  0  0
    2.8837    1.3215   -1.8355 C   0  0  0  0  0  0  0  0  0  0  0  0
    2.7470    2.4634   -2.2060 O   0  0  0  0  0  0  0  0  0  0  0  0
    1.0383    6.0732    2.4924 C   0  0  1  0  0  0  0  0  0  0  0  0
    0.5091    5.3752    3.1412 H   0  0  0  0  0  0  0  0  0  0  0  0
    2.0554    6.8647    3.3169 C   0  0  0  0  0  0  0  0  0  0  0  0
    2.9814    5.8941    4.0528 C   0  0  0  0  0  0  0  0  0  0  0  0
    3.9833    6.6737    4.8648 C   0  0  0  0  0  0  0  0  0  0  0  0
    5.1950    7.0339    4.3048 C   0  0  0  0  0  0  0  0  0  0  0  0
    6.1128    7.7535    5.0452 C   0  0  0  0  0  0  0  0  0  0  0  0
    5.8227    8.1045    6.3557 C   0  0  0  0  0  0  0  0  0  0  0  0
    4.6084    7.7370    6.9172 C   0  0  0  0  0  0  0  0  0  0  0  0
    3.6915    7.0227    6.1705 C   0  0  0  0  0  0  0  0  0  0  0  0
    6.7265    8.8068    7.0883 O   0  0  0  0  0  0  0  0  0  0  0  0
    0.0509    7.0238    1.8659 C   0  0  0  0  0  0  0  0  0  0  0  0
   -0.0593    7.0747    0.6637 O   0  0  0  0  0  0  0  0  0  0  0  0
   -0.6369    3.6870   -0.3438 H   0  0  0  0  0  0  0  0  0  0  0  0
   -0.7348    5.3104    0.3797 H   0  0  0  0  0  0  0  0  0  0  0  0
    0.4561    4.9769   -0.9005 H   0  0  0  0  0  0  0  0  0  0  0  0
   -0.5254    1.9223   -0.8778 H   0  0  0  0  0  0  0  0  0  0  0  0
   -0.5083    1.9127    0.9124 H   0  0  0  0  0  0  0  0  0  0  0  0
    0.1750   -0.3980    1.0035 H   0  0  0  0  0  0  0  0  0  0  0  0
   -0.9195   -0.4050   -0.4201 H   0  0  0  0  0  0  0  0  0  0  0  0
    1.6519   -1.2636   -0.6937 H   0  0  0  0  0  0  0  0  0  0  0  0
    0.9136   -0.2457   -1.9736 H   0  0  0  0  0  0  0  0  0  0  0  0
    2.6455    7.4984    2.6548 H   0  0  0  0  0  0  0  0  0  0  0  0
    1.5304    7.4864    4.0421 H   0  0  0  0  0  0  0  0  0  0  0  0
    2.3913    5.2605    4.7149 H   0  0  0  0  0  0  0  0  0  0  0  0
    3.5064    5.2724    3.3276 H   0  0  0  0  0  0  0  0  0  0  0  0
    5.4225    6.7560    3.2862 H   0  0  0  0  0  0  0  0  0  0  0  0
    7.0572    8.0388    4.6058 H   0  0  0  0  0  0  0  0  0  0  0  0
    4.3804    8.0087    7.9372 H   0  0  0  0  0  0  0  0  0  0  0  0
    2.7461    6.7364    6.6072 H   0  0  0  0  0  0  0  0  0  0  0  0
    7.3474    8.2537    7.5821 H   0  0  0  0  0  0  0  0  0  0  0  0
    3.6521    0.4751   -2.5390 O   0  5  0  0  0  0  0  0  0  0  0  0
    1.7467    5.3302    1.4332 N   0  3  0  0  0  0  0  0  0  0  0  0
    1.8833    5.9445    0.6219 H   0  0  0  0  0  0  0  0  0  0  0  0
    2.6601    5.0233    1.7877 H   0  0  0  0  0  0  0  0  0  0  0  0
   -0.7062    7.8138    2.6433 O   0  5  0  0  0  0  0  0  0  0  0  0
  1  2  1  0  0  0  0
  1 27  1  0  0  0  0
  1 28  1  0  0  0  0
  1 29  1  0  0  0  0
  2  3  1  0  0  0  0
  2  4  1  0  0  0  0
  2 46  1  0  0  0  0
  4  5  2  0  0  0  0
  4  6  1  0  0  0  0
  6 10  1  0  0  0  0
  6  7  1  0  0  0  0
  7  8  1  0  0  0  0
  7 30  1  0  0  0  0
  7 31  1  0  0  0  0
  8  9  1  0  0  0  0
  8 32  1  0  0  0  0
  8 33  1  0  0  0  0
  9 10  1  0  0  0  0
  9 34  1  0  0  0  0
  9 35  1  0  0  0  0
 10 11  1  0  0  0  0
 10 12  1  0  0  0  0
 12 13  2  0  0  0  0
 12 45  1  0  0  0  0
 14 15  1  0  0  0  0
 14 16  1  0  0  0  0
 14 25  1  0  0  0  0
 14 46  1  0  0  0  0
 16 17  1  0  0  0  0
 16 36  1  0  0  0  0
 16 37  1  0  0  0  0
 17 18  1  0  0  0  0
 17 38  1  0  0  0  0
 17 39  1  0  0  0  0
 18 23  2  0  0  0  0
 18 19  1  0  0  0  0
 19 20  2  0  0  0  0
 19 40  1  0  0  0  0
 20 21  1  0  0  0  0
 20 41  1  0  0  0  0
 21 22  2  0  0  0  0
 21 24  1  0  0  0  0
 22 23  1  0  0  0  0
 22 42  1  0  0  0  0
 23 43  1  0  0  0  0
 24 44  1  0  0  0  0
 25 26  2  0  0  0  0
 25 49  1  0  0  0  0
 46 47  1  0  0  0  0
 46 48  1  0  0  0  0
M  CHG  3  45  -1  46   1  49  -1
M  END
$$$$
