ZINC03814198
  -OEChem-08230709403D

 47 48  0     1  0  0  0  0  0999 V2000
    1.8530    4.1185   -1.2433 C   0  0  0  0  0  0  0  0  0  0  0  0
    1.1505    3.5924    0.0099 C   0  0  1  0  0  0  0  0  0  0  0  0
    0.1181    3.9417    0.0214 H   0  0  0  0  0  0  0  0  0  0  0  0
    1.1709    2.0855    0.0021 C   0  0  0  0  0  0  0  0  0  0  0  0
   -0.0167    1.3781    0.0096 C   0  0  0  0  0  0  0  0  0  0  0  0
    0.0021   -0.0041    0.0020 C   0  0  0  0  0  0  0  0  0  0  0  0
    1.2084   -0.6789   -0.0136 C   0  0  0  0  0  0  0  0  0  0  0  0
    2.3961    0.0285   -0.0212 C   0  0  0  0  0  0  0  0  0  0  0  0
    2.3773    1.4107   -0.0136 C   0  0  0  0  0  0  0  0  0  0  0  0
    1.8764    4.1058    1.2550 C   0  0  1  0  0  0  0  0  0  0  0  0
    2.9089    3.7565    1.2436 H   0  0  0  0  0  0  0  0  0  0  0  0
    1.8557    5.6356    1.2630 C   0  0  0  0  0  0  0  0  0  0  0  0
    2.8415    6.2465    2.6579 S   0  0  0  0  0  0  0  0  0  0  0  0
    1.1845    3.5876    2.4894 C   0  0  0  0  0  0  0  0  0  0  0  0
    0.2070    2.8775    2.3837 O   0  0  0  0  0  0  0  0  0  0  0  0
    1.6519    3.9132    3.7109 N   0  0  0  0  0  0  0  0  0  0  0  0
    0.9793    3.4095    4.9108 C   0  0  1  0  0  0  0  0  0  0  0  0
    0.5989    2.4060    4.7199 H   0  0  0  0  0  0  0  0  0  0  0  0
    1.9739    3.3654    6.0726 C   0  0  0  0  0  0  0  0  0  0  0  0
    3.0553    2.3604    5.7702 C   0  0  0  0  0  0  0  0  0  0  0  0
    2.9035    1.0431    6.1608 C   0  0  0  0  0  0  0  0  0  0  0  0
    3.8933    0.1202    5.8791 C   0  0  0  0  0  0  0  0  0  0  0  0
    5.0397    0.5167    5.2161 C   0  0  0  0  0  0  0  0  0  0  0  0
    5.1938    1.8351    4.8301 C   0  0  0  0  0  0  0  0  0  0  0  0
    4.2017    2.7570    5.1071 C   0  0  0  0  0  0  0  0  0  0  0  0
   -0.1666    4.3220    5.2649 C   0  0  0  0  0  0  0  0  0  0  0  0
   -0.3976    5.2935    4.5847 O   0  0  0  0  0  0  0  0  0  0  0  0
    1.3359    3.7527   -2.1303 H   0  0  0  0  0  0  0  0  0  0  0  0
    1.8382    5.2083   -1.2376 H   0  0  0  0  0  0  0  0  0  0  0  0
    2.8855    3.7692   -1.2548 H   0  0  0  0  0  0  0  0  0  0  0  0
   -0.9592    1.9054    0.0170 H   0  0  0  0  0  0  0  0  0  0  0  0
   -0.9258   -0.5567    0.0079 H   0  0  0  0  0  0  0  0  0  0  0  0
    1.2231   -1.7588   -0.0196 H   0  0  0  0  0  0  0  0  0  0  0  0
    3.3386   -0.4987   -0.0327 H   0  0  0  0  0  0  0  0  0  0  0  0
    3.3052    1.9634   -0.0192 H   0  0  0  0  0  0  0  0  0  0  0  0
    2.2763    6.0096    0.3295 H   0  0  0  0  0  0  0  0  0  0  0  0
    0.8280    5.9845    1.3640 H   0  0  0  0  0  0  0  0  0  0  0  0
    2.7488    7.5847    2.5605 H   0  0  0  0  0  0  0  0  0  0  0  0
    2.4338    4.4811    3.7954 H   0  0  0  0  0  0  0  0  0  0  0  0
    2.4206    4.3507    6.2060 H   0  0  0  0  0  0  0  0  0  0  0  0
    1.4537    3.0757    6.9855 H   0  0  0  0  0  0  0  0  0  0  0  0
    2.0099    0.7342    6.6827 H   0  0  0  0  0  0  0  0  0  0  0  0
    3.7731   -0.9098    6.1810 H   0  0  0  0  0  0  0  0  0  0  0  0
    5.8150   -0.2034    4.9999 H   0  0  0  0  0  0  0  0  0  0  0  0
    6.0896    2.1450    4.3124 H   0  0  0  0  0  0  0  0  0  0  0  0
    4.3223    3.7871    4.8059 H   0  0  0  0  0  0  0  0  0  0  0  0
   -0.9305    4.0556    6.3359 O   0  5  0  0  0  0  0  0  0  0  0  0
  1  2  1  0  0  0  0
  1 28  1  0  0  0  0
  1 29  1  0  0  0  0
  1 30  1  0  0  0  0
  2  3  1  0  0  0  0
  2  4  1  0  0  0  0
  2 10  1  0  0  0  0
  4  9  2  0  0  0  0
  4  5  1  0  0  0  0
  5  6  2  0  0  0  0
  5 31  1  0  0  0  0
  6  7  1  0  0  0  0
  6 32  1  0  0  0  0
  7  8  2  0  0  0  0
  7 33  1  0  0  0  0
  8  9  1  0  0  0  0
  8 34  1  0  0  0  0
  9 35  1  0  0  0  0
 10 11  1  0  0  0  0
 10 12  1  0  0  0  0
 10 14  1  0  0  0  0
 12 13  1  0  0  0  0
 12 36  1  0  0  0  0
 12 37  1  0  0  0  0
 13 38  1  0  0  0  0
 14 15  2  0  0  0  0
 14 16  1  0  0  0  0
 16 17  1  0  0  0  0
 16 39  1  0  0  0  0
 17 18  1  0  0  0  0
 17 19  1  0  0  0  0
 17 26  1  0  0  0  0
 19 20  1  0  0  0  0
 19 40  1  0  0  0  0
 19 41  1  0  0  0  0
 20 25  2  0  0  0  0
 20 21  1  0  0  0  0
 21 22  2  0  0  0  0
 21 42  1  0  0  0  0
 22 23  1  0  0  0  0
 22 43  1  0  0  0  0
 23 24  2  0  0  0  0
 23 44  1  0  0  0  0
 24 25  1  0  0  0  0
 24 45  1  0  0  0  0
 25 46  1  0  0  0  0
 26 27  2  0  0  0  0
 26 47  1  0  0  0  0
M  CHG  1  47  -1
M  END
$$$$
