ZINC03814195
  -OEChem-08230709403D

 47 48  0     1  0  0  0  0  0999 V2000
    0.8140    5.3896    3.2370 C   0  0  0  0  0  0  0  0  0  0  0  0
   -0.3909    6.1169    2.6370 C   0  0  1  0  0  0  0  0  0  0  0  0
   -1.2793    5.8982    3.2295 H   0  0  0  0  0  0  0  0  0  0  0  0
   -0.1357    7.6021    2.6438 C   0  0  0  0  0  0  0  0  0  0  0  0
    0.9478    8.1204    1.9595 C   0  0  0  0  0  0  0  0  0  0  0  0
    1.1795    9.4832    1.9622 C   0  0  0  0  0  0  0  0  0  0  0  0
    0.3330   10.3268    2.6571 C   0  0  0  0  0  0  0  0  0  0  0  0
   -0.7477    9.8080    3.3454 C   0  0  0  0  0  0  0  0  0  0  0  0
   -0.9818    8.4456    3.3391 C   0  0  0  0  0  0  0  0  0  0  0  0
   -0.6080    5.6434    1.1984 C   0  0  2  0  0  0  0  0  0  0  0  0
    0.2804    5.8621    0.6059 H   0  0  0  0  0  0  0  0  0  0  0  0
   -1.8130    6.3707    0.5984 C   0  0  0  0  0  0  0  0  0  0  0  0
   -1.4473    8.1428    0.4703 S   0  0  0  0  0  0  0  0  0  0  0  0
   -0.8633    4.1582    1.1915 C   0  0  0  0  0  0  0  0  0  0  0  0
   -0.8708    3.5393    2.2346 O   0  0  0  0  0  0  0  0  0  0  0  0
   -1.0832    3.5176    0.0263 N   0  0  0  0  0  0  0  0  0  0  0  0
   -1.3313    2.0738    0.0196 C   0  0  1  0  0  0  0  0  0  0  0  0
   -1.8950    1.7979    0.9108 H   0  0  0  0  0  0  0  0  0  0  0  0
   -2.1344    1.7001   -1.2279 C   0  0  0  0  0  0  0  0  0  0  0  0
   -3.4977    2.3385   -1.1576 C   0  0  0  0  0  0  0  0  0  0  0  0
   -4.5485    1.6614   -0.5674 C   0  0  0  0  0  0  0  0  0  0  0  0
   -5.7978    2.2491   -0.4986 C   0  0  0  0  0  0  0  0  0  0  0  0
   -5.9989    3.5096   -1.0293 C   0  0  0  0  0  0  0  0  0  0  0  0
   -4.9493    4.1845   -1.6242 C   0  0  0  0  0  0  0  0  0  0  0  0
   -3.6988    3.5990   -1.6883 C   0  0  0  0  0  0  0  0  0  0  0  0
   -0.0161    1.3381    0.0094 C   0  0  0  0  0  0  0  0  0  0  0  0
    1.0219    1.9564    0.0028 O   0  0  0  0  0  0  0  0  0  0  0  0
    0.9687    5.7269    4.2618 H   0  0  0  0  0  0  0  0  0  0  0  0
    0.6294    4.3153    3.2320 H   0  0  0  0  0  0  0  0  0  0  0  0
    1.7024    5.6083    2.6445 H   0  0  0  0  0  0  0  0  0  0  0  0
    1.6115    7.4609    1.4200 H   0  0  0  0  0  0  0  0  0  0  0  0
    2.0236    9.8885    1.4242 H   0  0  0  0  0  0  0  0  0  0  0  0
    0.5160   11.3911    2.6620 H   0  0  0  0  0  0  0  0  0  0  0  0
   -1.4090   10.4671    3.8883 H   0  0  0  0  0  0  0  0  0  0  0  0
   -1.8260    8.0403    3.8771 H   0  0  0  0  0  0  0  0  0  0  0  0
   -2.0221    5.9702   -0.3935 H   0  0  0  0  0  0  0  0  0  0  0  0
   -2.6820    6.2245    1.2399 H   0  0  0  0  0  0  0  0  0  0  0  0
   -2.5648    8.6680   -0.0629 H   0  0  0  0  0  0  0  0  0  0  0  0
   -1.0772    4.0125   -0.8079 H   0  0  0  0  0  0  0  0  0  0  0  0
   -1.6122    2.0554   -2.1162 H   0  0  0  0  0  0  0  0  0  0  0  0
   -2.2428    0.6167   -1.2791 H   0  0  0  0  0  0  0  0  0  0  0  0
   -4.3924    0.6748   -0.1568 H   0  0  0  0  0  0  0  0  0  0  0  0
   -6.6178    1.7216   -0.0342 H   0  0  0  0  0  0  0  0  0  0  0  0
   -6.9760    3.9669   -0.9796 H   0  0  0  0  0  0  0  0  0  0  0  0
   -5.1065    5.1692   -2.0391 H   0  0  0  0  0  0  0  0  0  0  0  0
   -2.8789    4.1262   -2.1533 H   0  0  0  0  0  0  0  0  0  0  0  0
    0.0021   -0.0041    0.0020 O   0  5  0  0  0  0  0  0  0  0  0  0
  1  2  1  0  0  0  0
  1 28  1  0  0  0  0
  1 29  1  0  0  0  0
  1 30  1  0  0  0  0
  2  3  1  0  0  0  0
  2  4  1  0  0  0  0
  2 10  1  0  0  0  0
  4  9  2  0  0  0  0
  4  5  1  0  0  0  0
  5  6  2  0  0  0  0
  5 31  1  0  0  0  0
  6  7  1  0  0  0  0
  6 32  1  0  0  0  0
  7  8  2  0  0  0  0
  7 33  1  0  0  0  0
  8  9  1  0  0  0  0
  8 34  1  0  0  0  0
  9 35  1  0  0  0  0
 10 11  1  0  0  0  0
 10 12  1  0  0  0  0
 10 14  1  0  0  0  0
 12 13  1  0  0  0  0
 12 36  1  0  0  0  0
 12 37  1  0  0  0  0
 13 38  1  0  0  0  0
 14 15  2  0  0  0  0
 14 16  1  0  0  0  0
 16 17  1  0  0  0  0
 16 39  1  0  0  0  0
 17 18  1  0  0  0  0
 17 19  1  0  0  0  0
 17 26  1  0  0  0  0
 19 20  1  0  0  0  0
 19 40  1  0  0  0  0
 19 41  1  0  0  0  0
 20 25  2  0  0  0  0
 20 21  1  0  0  0  0
 21 22  2  0  0  0  0
 21 42  1  0  0  0  0
 22 23  1  0  0  0  0
 22 43  1  0  0  0  0
 23 24  2  0  0  0  0
 23 44  1  0  0  0  0
 24 25  1  0  0  0  0
 24 45  1  0  0  0  0
 25 46  1  0  0  0  0
 26 27  2  0  0  0  0
 26 47  1  0  0  0  0
M  CHG  1  47  -1
M  END
$$$$
