ZINC03814165
  -OEChem-08230709403D

 35 36  0     1  0  0  0  0  0999 V2000
   -0.0187    1.5258    0.0104 C   0  0  0  0  0  0  0  0  0  0  0  0
    0.0021   -0.0041    0.0020 C   0  0  1  0  0  0  0  0  0  0  0  0
   -1.0205   -0.3814    0.0098 H   0  0  0  0  0  0  0  0  0  0  0  0
    0.7074   -0.4901   -1.2379 C   0  0  0  0  0  0  0  0  0  0  0  0
    1.6458    0.1342   -1.6858 O   0  0  0  0  0  0  0  0  0  0  0  0
    0.2955   -1.6185   -1.8490 N   0  0  0  0  0  0  0  0  0  0  0  0
    0.9812   -2.0909   -3.0543 C   0  0  1  0  0  0  0  0  0  0  0  0
    2.0452   -1.8666   -2.9785 H   0  0  0  0  0  0  0  0  0  0  0  0
    0.7872   -3.6023   -3.1921 C   0  0  0  0  0  0  0  0  0  0  0  0
    1.4688   -4.3029   -2.0452 C   0  0  0  0  0  0  0  0  0  0  0  0
    2.7074   -4.8204   -2.0482 C   0  0  0  0  0  0  0  0  0  0  0  0
    2.9836   -5.3769   -0.8291 N   0  0  0  0  0  0  0  0  0  0  0  0
    3.8173   -5.8120   -0.5911 H   0  0  0  0  0  0  0  0  0  0  0  0
    1.9019   -5.2273    0.0097 C   0  0  0  0  0  0  0  0  0  0  0  0
    0.9077   -4.5428   -0.7134 C   0  0  0  0  0  0  0  0  0  0  0  0
   -0.3174   -4.2534   -0.1101 C   0  0  0  0  0  0  0  0  0  0  0  0
   -0.5410   -4.6278    1.1851 C   0  0  0  0  0  0  0  0  0  0  0  0
    0.4386   -5.2981    1.9044 C   0  0  0  0  0  0  0  0  0  0  0  0
    1.6529   -5.5985    1.3267 C   0  0  0  0  0  0  0  0  0  0  0  0
    0.4067   -1.3984   -4.2632 C   0  0  0  0  0  0  0  0  0  0  0  0
   -0.4842   -0.5928   -4.1314 O   0  0  0  0  0  0  0  0  0  0  0  0
    0.8794   -0.6050    1.4716 S   0  0  0  0  0  0  0  0  0  0  0  0
    1.0039    1.9031    0.0027 H   0  0  0  0  0  0  0  0  0  0  0  0
   -0.5459    1.8868   -0.8726 H   0  0  0  0  0  0  0  0  0  0  0  0
   -0.5289    1.8773    0.9072 H   0  0  0  0  0  0  0  0  0  0  0  0
   -0.4550   -2.1178   -1.4907 H   0  0  0  0  0  0  0  0  0  0  0  0
   -0.2777   -3.8346   -3.1786 H   0  0  0  0  0  0  0  0  0  0  0  0
    1.2208   -3.9399   -4.1335 H   0  0  0  0  0  0  0  0  0  0  0  0
    3.3854   -4.8008   -2.8887 H   0  0  0  0  0  0  0  0  0  0  0  0
   -1.0842   -3.7318   -0.6635 H   0  0  0  0  0  0  0  0  0  0  0  0
   -1.4875   -4.4000    1.6527 H   0  0  0  0  0  0  0  0  0  0  0  0
    0.2472   -5.5869    2.9273 H   0  0  0  0  0  0  0  0  0  0  0  0
    2.4089   -6.1201    1.8948 H   0  0  0  0  0  0  0  0  0  0  0  0
    2.1123   -0.0808    1.3516 H   0  0  0  0  0  0  0  0  0  0  0  0
    0.8846   -1.6765   -5.4863 O   0  5  0  0  0  0  0  0  0  0  0  0
  1  2  1  0  0  0  0
  1 23  1  0  0  0  0
  1 24  1  0  0  0  0
  1 25  1  0  0  0  0
  2  3  1  0  0  0  0
  2  4  1  0  0  0  0
  2 22  1  0  0  0  0
  4  5  2  0  0  0  0
  4  6  1  0  0  0  0
  6  7  1  0  0  0  0
  6 26  1  0  0  0  0
  7  8  1  0  0  0  0
  7  9  1  0  0  0  0
  7 20  1  0  0  0  0
  9 10  1  0  0  0  0
  9 27  1  0  0  0  0
  9 28  1  0  0  0  0
 10 15  1  0  0  0  0
 10 11  2  0  0  0  0
 11 12  1  0  0  0  0
 11 29  1  0  0  0  0
 12 13  1  0  0  0  0
 12 14  1  0  0  0  0
 14 19  2  0  0  0  0
 14 15  1  0  0  0  0
 15 16  2  0  0  0  0
 16 17  1  0  0  0  0
 16 30  1  0  0  0  0
 17 18  2  0  0  0  0
 17 31  1  0  0  0  0
 18 19  1  0  0  0  0
 18 32  1  0  0  0  0
 19 33  1  0  0  0  0
 20 21  2  0  0  0  0
 20 35  1  0  0  0  0
 22 34  1  0  0  0  0
M  CHG  1  35  -1
M  END
$$$$
