ZINC03814178
  -OEChem-08230709403D

 53 55  0     1  0  0  0  0  0999 V2000
   -3.9055   13.2528    0.2779 C   0  0  0  0  0  0  0  0  0  0  0  0
   -2.5304   13.2761    0.4171 C   0  0  0  0  0  0  0  0  0  0  0  0
   -1.7666   12.2421   -0.0911 C   0  0  0  0  0  0  0  0  0  0  0  0
   -2.3779   11.1847   -0.7384 C   0  0  0  0  0  0  0  0  0  0  0  0
   -3.7526   11.1639   -0.8822 C   0  0  0  0  0  0  0  0  0  0  0  0
   -4.5168   12.1954   -0.3695 C   0  0  0  0  0  0  0  0  0  0  0  0
   -1.5452   10.0576   -1.2928 C   0  0  0  0  0  0  0  0  0  0  0  0
   -1.3781    8.9742   -0.2255 C   0  0  0  0  0  0  0  0  0  0  0  0
   -0.5327    7.8299   -0.7883 C   0  0  0  0  0  0  0  0  0  0  0  0
   -0.3656    6.7465    0.2790 C   0  0  0  0  0  0  0  0  0  0  0  0
    0.6418    5.3831   -0.3916 P   0  0  1  0  0  0  0  0  0  0  0  0
    1.9263    5.9196   -0.8940 O   0  0  0  0  0  0  0  0  0  0  0  0
    0.9657    4.1630    0.9236 C   0  0  0  0  0  0  0  0  0  0  0  0
    1.8988    3.0998    0.4039 C   0  0  0  0  0  0  0  0  0  0  0  0
    3.0914    3.3134    0.3501 O   0  0  0  0  0  0  0  0  0  0  0  0
    1.4079    1.9118   -0.0011 N   0  0  0  0  0  0  0  0  0  0  0  0
   -0.0186    1.5217    0.0104 C   0  0  0  0  0  0  0  0  0  0  0  0
    0.0021   -0.0041    0.0020 C   0  0  0  0  0  0  0  0  0  0  0  0
    1.2254   -0.3662   -0.8397 C   0  0  0  0  0  0  0  0  0  0  0  0
    2.2043    0.7909   -0.5265 C   0  0  1  0  0  0  0  0  0  0  0  0
    2.9300    0.4699    0.2208 H   0  0  0  0  0  0  0  0  0  0  0  0
    2.9159    1.2143   -1.7857 C   0  0  0  0  0  0  0  0  0  0  0  0
    2.5456    2.1938   -2.3886 O   0  0  0  0  0  0  0  0  0  0  0  0
   -1.5334   -0.7112   -0.6799 S   0  0  0  0  0  0  0  0  0  0  0  0
   -1.7859   -2.1959    0.3749 C   0  0  0  0  0  0  0  0  0  0  0  0
   -1.4247   -1.7401    1.8126 C   0  0  0  0  0  0  0  0  0  0  0  0
    0.0826   -0.7077    1.6771 S   0  0  0  0  0  0  0  0  0  0  0  0
   -0.1521    4.6728   -1.5988 O   0  0  0  0  0  0  0  0  0  0  0  0
   -4.5022   14.0609    0.6746 H   0  0  0  0  0  0  0  0  0  0  0  0
   -2.0527   14.1024    0.9225 H   0  0  0  0  0  0  0  0  0  0  0  0
   -0.6922   12.2605    0.0174 H   0  0  0  0  0  0  0  0  0  0  0  0
   -4.2299   10.3400   -1.3918 H   0  0  0  0  0  0  0  0  0  0  0  0
   -5.5911   12.1774   -0.4785 H   0  0  0  0  0  0  0  0  0  0  0  0
   -0.5652   10.4377   -1.5812 H   0  0  0  0  0  0  0  0  0  0  0  0
   -2.0420    9.6341   -2.1657 H   0  0  0  0  0  0  0  0  0  0  0  0
   -2.3581    8.5941    0.0630 H   0  0  0  0  0  0  0  0  0  0  0  0
   -0.8813    9.3977    0.6475 H   0  0  0  0  0  0  0  0  0  0  0  0
    0.4473    8.2100   -1.0767 H   0  0  0  0  0  0  0  0  0  0  0  0
   -1.0295    7.4064   -1.6612 H   0  0  0  0  0  0  0  0  0  0  0  0
   -1.3456    6.3664    0.5675 H   0  0  0  0  0  0  0  0  0  0  0  0
    0.1312    7.1700    1.1520 H   0  0  0  0  0  0  0  0  0  0  0  0
    0.0267    3.7032    1.2320 H   0  0  0  0  0  0  0  0  0  0  0  0
    1.4234    4.6622    1.7777 H   0  0  0  0  0  0  0  0  0  0  0  0
   -0.5237    1.9002   -0.8783 H   0  0  0  0  0  0  0  0  0  0  0  0
   -0.5066    1.8905    0.9126 H   0  0  0  0  0  0  0  0  0  0  0  0
    1.6429   -1.3223   -0.5239 H   0  0  0  0  0  0  0  0  0  0  0  0
    0.9739   -0.3839   -1.9001 H   0  0  0  0  0  0  0  0  0  0  0  0
   -1.1253   -3.0024    0.0568 H   0  0  0  0  0  0  0  0  0  0  0  0
   -2.8261   -2.5185    0.3307 H   0  0  0  0  0  0  0  0  0  0  0  0
   -1.2263   -2.6089    2.4402 H   0  0  0  0  0  0  0  0  0  0  0  0
   -2.2412   -1.1543    2.2348 H   0  0  0  0  0  0  0  0  0  0  0  0
   -1.0053    4.2974   -1.3414 H   0  0  0  0  0  0  0  0  0  0  0  0
    3.9610    0.5034   -2.2375 O   0  5  0  0  0  0  0  0  0  0  0  0
  1  6  2  0  0  0  0
  1  2  1  0  0  0  0
  1 29  1  0  0  0  0
  2  3  2  0  0  0  0
  2 30  1  0  0  0  0
  3  4  1  0  0  0  0
  3 31  1  0  0  0  0
  4  5  2  0  0  0  0
  4  7  1  0  0  0  0
  5  6  1  0  0  0  0
  5 32  1  0  0  0  0
  6 33  1  0  0  0  0
  7  8  1  0  0  0  0
  7 34  1  0  0  0  0
  7 35  1  0  0  0  0
  8  9  1  0  0  0  0
  8 36  1  0  0  0  0
  8 37  1  0  0  0  0
  9 10  1  0  0  0  0
  9 38  1  0  0  0  0
  9 39  1  0  0  0  0
 10 11  1  0  0  0  0
 10 40  1  0  0  0  0
 10 41  1  0  0  0  0
 11 12  2  0  0  0  0
 11 13  1  0  0  0  0
 11 28  1  0  0  0  0
 13 14  1  0  0  0  0
 13 42  1  0  0  0  0
 13 43  1  0  0  0  0
 14 15  2  0  0  0  0
 14 16  1  0  0  0  0
 16 20  1  0  0  0  0
 16 17  1  0  0  0  0
 17 18  1  0  0  0  0
 17 44  1  0  0  0  0
 17 45  1  0  0  0  0
 18 27  1  0  0  0  0
 18 19  1  0  0  0  0
 18 24  1  0  0  0  0
 19 20  1  0  0  0  0
 19 46  1  0  0  0  0
 19 47  1  0  0  0  0
 20 21  1  0  0  0  0
 20 22  1  0  0  0  0
 22 23  2  0  0  0  0
 22 53  1  0  0  0  0
 24 25  1  0  0  0  0
 25 26  1  0  0  0  0
 25 48  1  0  0  0  0
 25 49  1  0  0  0  0
 26 27  1  0  0  0  0
 26 50  1  0  0  0  0
 26 51  1  0  0  0  0
 28 52  1  0  0  0  0
M  CHG  1  53  -1
M  END
$$$$
