ZINC03815150
  -OEChem-08230709403D

 39 42  0     0  0  0  0  0  0999 V2000
   -1.9973    4.6229    1.0469 C   0  0  0  0  0  0  0  0  0  0  0  0
   -0.8879    3.8208    0.8626 C   0  0  0  0  0  0  0  0  0  0  0  0
    0.2545    4.3428    0.2697 C   0  0  0  0  0  0  0  0  0  0  0  0
    0.2796    5.6723   -0.1317 C   0  0  0  0  0  0  0  0  0  0  0  0
   -0.8353    6.4684    0.0505 C   0  0  0  0  0  0  0  0  0  0  0  0
   -1.9720    5.9444    0.6419 C   0  0  0  0  0  0  0  0  0  0  0  0
   -0.8080    8.1285   -0.4565 Cl  0  0  0  0  0  0  0  0  0  0  0  0
    1.3787    3.5334    0.0825 N   0  0  0  0  0  0  0  0  0  0  0  0
    1.2240    2.1828   -0.1680 C   0  0  0  0  0  0  0  0  0  0  0  0
    2.3399    1.3332   -0.2504 C   0  0  0  0  0  0  0  0  0  0  0  0
    2.1260   -0.0350   -0.5087 C   0  0  0  0  0  0  0  0  0  0  0  0
    3.3523   -0.6265   -0.5385 N   0  0  0  0  0  0  0  0  0  0  0  0
    3.5214   -1.5984   -0.7020 H   0  0  0  0  0  0  0  0  0  0  0  0
    4.3385    0.3378   -0.3047 N   0  0  0  0  0  0  0  0  0  0  0  0
    3.7839    1.5098   -0.1293 C   0  0  0  0  0  0  0  0  0  0  0  0
    4.4509    2.7095    0.1276 N   0  0  0  0  0  0  0  0  0  0  0  0
    5.8359    2.7104    0.3321 C   0  0  0  0  0  0  0  0  0  0  0  0
    6.4597    1.5907    0.8669 C   0  0  0  0  0  0  0  0  0  0  0  0
    7.8263    1.5897    1.0636 C   0  0  0  0  0  0  0  0  0  0  0  0
    8.5757    2.7122    0.7365 C   0  0  0  0  0  0  0  0  0  0  0  0
    7.9513    3.8340    0.2071 C   0  0  0  0  0  0  0  0  0  0  0  0
    6.5853    3.8332    0.0054 C   0  0  0  0  0  0  0  0  0  0  0  0
    9.9604    2.7132    0.9409 N   0  0  0  0  0  0  0  0  0  0  0  0
    0.8748   -0.4679   -0.6638 N   0  0  0  0  0  0  0  0  0  0  0  0
   -0.1388    0.3651   -0.5775 C   0  0  0  0  0  0  0  0  0  0  0  0
    0.0154    1.6552   -0.3374 N   0  0  0  0  0  0  0  0  0  0  0  0
   -2.8855    4.2172    1.5083 H   0  0  0  0  0  0  0  0  0  0  0  0
   -0.9089    2.7884    1.1791 H   0  0  0  0  0  0  0  0  0  0  0  0
    1.1677    6.0823   -0.5894 H   0  0  0  0  0  0  0  0  0  0  0  0
   -2.8407    6.5694    0.7874 H   0  0  0  0  0  0  0  0  0  0  0  0
    2.2674    3.9194    0.1284 H   0  0  0  0  0  0  0  0  0  0  0  0
    3.9547    3.5421    0.1643 H   0  0  0  0  0  0  0  0  0  0  0  0
    5.8763    0.7192    1.1251 H   0  0  0  0  0  0  0  0  0  0  0  0
    8.3120    0.7175    1.4757 H   0  0  0  0  0  0  0  0  0  0  0  0
    8.5341    4.7069   -0.0473 H   0  0  0  0  0  0  0  0  0  0  0  0
    6.0998    4.7054   -0.4067 H   0  0  0  0  0  0  0  0  0  0  0  0
   10.4838    3.4973    0.7128 H   0  0  0  0  0  0  0  0  0  0  0  0
   10.3966    1.9297    1.3107 H   0  0  0  0  0  0  0  0  0  0  0  0
   -1.1389   -0.0211   -0.7086 H   0  0  0  0  0  0  0  0  0  0  0  0
  1  6  2  0  0  0  0
  1  2  1  0  0  0  0
  1 27  1  0  0  0  0
  2  3  2  0  0  0  0
  2 28  1  0  0  0  0
  3  4  1  0  0  0  0
  3  8  1  0  0  0  0
  4  5  2  0  0  0  0
  4 29  1  0  0  0  0
  5  6  1  0  0  0  0
  5  7  1  0  0  0  0
  6 30  1  0  0  0  0
  8  9  1  0  0  0  0
  8 31  1  0  0  0  0
  9 26  2  0  0  0  0
  9 10  1  0  0  0  0
 10 15  1  0  0  0  0
 10 11  2  0  0  0  0
 11 12  1  0  0  0  0
 11 24  1  0  0  0  0
 12 13  1  0  0  0  0
 12 14  1  0  0  0  0
 14 15  2  0  0  0  0
 15 16  1  0  0  0  0
 16 17  1  0  0  0  0
 16 32  1  0  0  0  0
 17 22  2  0  0  0  0
 17 18  1  0  0  0  0
 18 19  2  0  0  0  0
 18 33  1  0  0  0  0
 19 20  1  0  0  0  0
 19 34  1  0  0  0  0
 20 21  2  0  0  0  0
 20 23  1  0  0  0  0
 21 22  1  0  0  0  0
 21 35  1  0  0  0  0
 22 36  1  0  0  0  0
 23 37  1  0  0  0  0
 23 38  1  0  0  0  0
 24 25  2  0  0  0  0
 25 26  1  0  0  0  0
 25 39  1  0  0  0  0
M  END
$$$$
