ZINC03815149
  -OEChem-08230709403D

 58 61  0     0  0  0  0  0  0999 V2000
    1.1841  -12.7113    1.0535 C   0  0  0  0  0  0  0  0  0  0  0  0
    0.0381  -10.7621    1.9206 C   0  0  0  0  0  0  0  0  0  0  0  0
   -0.3827   -9.3283    1.5896 C   0  0  0  0  0  0  0  0  0  0  0  0
    1.6020   -9.0595    0.2304 C   0  0  0  0  0  0  0  0  0  0  0  0
    2.0228  -10.4933    0.5614 C   0  0  0  0  0  0  0  0  0  0  0  0
    0.4559   -7.1103    1.0976 C   0  0  0  0  0  0  0  0  0  0  0  0
    1.7226   -6.2521    1.0953 C   0  0  0  0  0  0  0  0  0  0  0  0
    1.3484   -4.7911    0.8377 C   0  0  0  0  0  0  0  0  0  0  0  0
    2.5612   -3.9694    0.8356 N   0  0  0  0  0  0  0  0  0  0  0  0
    2.4720   -2.6003    0.6204 C   0  0  0  0  0  0  0  0  0  0  0  0
    1.2299   -2.0292    0.4098 C   0  0  0  0  0  0  0  0  0  0  0  0
    1.1580   -0.6486    0.1946 C   0  0  0  0  0  0  0  0  0  0  0  0
    2.3673    0.0969    0.2036 C   0  0  0  0  0  0  0  0  0  0  0  0
    3.5750   -0.5685    0.4254 C   0  0  0  0  0  0  0  0  0  0  0  0
    2.2915    1.4922   -0.0143 C   0  0  0  0  0  0  0  0  0  0  0  0
    1.0937    2.0291   -0.2162 N   0  0  0  0  0  0  0  0  0  0  0  0
   -0.0056    1.2930   -0.2154 C   0  0  0  0  0  0  0  0  0  0  0  0
    0.0030   -0.0056   -0.0184 N   0  0  0  0  0  0  0  0  0  0  0  0
    3.4280    2.2722   -0.0180 N   0  0  0  0  0  0  0  0  0  0  0  0
    3.3212    3.6627   -0.1146 C   0  0  0  0  0  0  0  0  0  0  0  0
    2.2594    4.3230    0.4911 C   0  0  0  0  0  0  0  0  0  0  0  0
    2.1566    5.6966    0.3945 C   0  0  0  0  0  0  0  0  0  0  0  0
    3.1093    6.4157   -0.3040 C   0  0  0  0  0  0  0  0  0  0  0  0
    4.1680    5.7616   -0.9086 C   0  0  0  0  0  0  0  0  0  0  0  0
    4.2791    4.3874   -0.8114 C   0  0  0  0  0  0  0  0  0  0  0  0
    5.4681    6.7494   -1.8625 Br  0  0  0  0  0  0  0  0  0  0  0  0
    0.2766  -13.3047    1.1646 H   0  0  0  0  0  0  0  0  0  0  0  0
    1.7658  -13.0909    0.2134 H   0  0  0  0  0  0  0  0  0  0  0  0
    1.7766  -12.7792    1.9659 H   0  0  0  0  0  0  0  0  0  0  0  0
    0.6427  -10.7634    2.8276 H   0  0  0  0  0  0  0  0  0  0  0  0
   -0.8498  -11.3753    2.0745 H   0  0  0  0  0  0  0  0  0  0  0  0
   -0.9418   -8.9108    2.4271 H   0  0  0  0  0  0  0  0  0  0  0  0
   -1.0098   -9.3299    0.6981 H   0  0  0  0  0  0  0  0  0  0  0  0
    0.9974   -9.0581   -0.6766 H   0  0  0  0  0  0  0  0  0  0  0  0
    2.4899   -8.4462    0.0769 H   0  0  0  0  0  0  0  0  0  0  0  0
    2.6499  -10.4917    1.4529 H   0  0  0  0  0  0  0  0  0  0  0  0
    2.5818  -10.9107   -0.2761 H   0  0  0  0  0  0  0  0  0  0  0  0
   -0.2164   -6.7636    1.8823 H   0  0  0  0  0  0  0  0  0  0  0  0
   -0.0407   -7.0275    0.1308 H   0  0  0  0  0  0  0  0  0  0  0  0
    2.3949   -6.5988    0.3105 H   0  0  0  0  0  0  0  0  0  0  0  0
    2.2193   -6.3349    2.0620 H   0  0  0  0  0  0  0  0  0  0  0  0
    0.6760   -4.4445    1.6225 H   0  0  0  0  0  0  0  0  0  0  0  0
    0.8517   -4.7083   -0.1290 H   0  0  0  0  0  0  0  0  0  0  0  0
    3.4266   -4.3816    0.9845 H   0  0  0  0  0  0  0  0  0  0  0  0
    0.3360   -2.6352    0.4111 H   0  0  0  0  0  0  0  0  0  0  0  0
    4.5024   -0.0151    0.4350 H   0  0  0  0  0  0  0  0  0  0  0  0
   -0.9530    1.7815   -0.3890 H   0  0  0  0  0  0  0  0  0  0  0  0
    4.3019    1.8563    0.0464 H   0  0  0  0  0  0  0  0  0  0  0  0
    1.5149    3.7624    1.0368 H   0  0  0  0  0  0  0  0  0  0  0  0
    1.3313    6.2102    0.8653 H   0  0  0  0  0  0  0  0  0  0  0  0
    3.0268    7.4900   -0.3774 H   0  0  0  0  0  0  0  0  0  0  0  0
    5.1079    3.8775   -1.2799 H   0  0  0  0  0  0  0  0  0  0  0  0
    0.8088  -11.3070    0.7833 N   0  3  0  0  0  0  0  0  0  0  0  0
    0.2258  -11.2740   -0.0613 H   0  0  0  0  0  0  0  0  0  0  0  0
    0.8311   -8.5147    1.3679 N   0  3  0  0  0  0  0  0  0  0  0  0
    1.4139   -8.5476    2.2125 H   0  0  0  0  0  0  0  0  0  0  0  0
    3.6583   -1.9074    0.6355 N   0  3  0  0  0  0  0  0  0  0  0  0
    4.5576   -2.3758    0.7966 H   0  0  0  0  0  0  0  0  0  0  0  0
  1 27  1  0  0  0  0
  1 28  1  0  0  0  0
  1 29  1  0  0  0  0
  1 53  1  0  0  0  0
  2  3  1  0  0  0  0
  2 30  1  0  0  0  0
  2 31  1  0  0  0  0
  2 53  1  0  0  0  0
  3 32  1  0  0  0  0
  3 33  1  0  0  0  0
  3 55  1  0  0  0  0
  4  5  1  0  0  0  0
  4 34  1  0  0  0  0
  4 35  1  0  0  0  0
  4 55  1  0  0  0  0
  5 36  1  0  0  0  0
  5 37  1  0  0  0  0
  5 53  1  0  0  0  0
  6  7  1  0  0  0  0
  6 38  1  0  0  0  0
  6 39  1  0  0  0  0
  6 55  1  0  0  0  0
  7  8  1  0  0  0  0
  7 40  1  0  0  0  0
  7 41  1  0  0  0  0
  8  9  1  0  0  0  0
  8 42  1  0  0  0  0
  8 43  1  0  0  0  0
  9 10  1  0  0  0  0
  9 44  1  0  0  0  0
 10 11  2  0  0  0  0
 10 57  1  0  0  0  0
 11 12  1  0  0  0  0
 11 45  1  0  0  0  0
 12 18  2  0  0  0  0
 12 13  1  0  0  0  0
 13 14  1  0  0  0  0
 13 15  2  0  0  0  0
 14 46  1  0  0  0  0
 14 57  2  0  0  0  0
 15 16  1  0  0  0  0
 15 19  1  0  0  0  0
 16 17  2  0  0  0  0
 17 18  1  0  0  0  0
 17 47  1  0  0  0  0
 19 20  1  0  0  0  0
 19 48  1  0  0  0  0
 20 25  2  0  0  0  0
 20 21  1  0  0  0  0
 21 22  2  0  0  0  0
 21 49  1  0  0  0  0
 22 23  1  0  0  0  0
 22 50  1  0  0  0  0
 23 24  2  0  0  0  0
 23 51  1  0  0  0  0
 24 25  1  0  0  0  0
 24 26  1  0  0  0  0
 25 52  1  0  0  0  0
 53 54  1  0  0  0  0
 55 56  1  0  0  0  0
 57 58  1  0  0  0  0
M  CHG  3  53   1  55   1  57   1
M  END
$$$$
