ZINC03815133
  -OEChem-08230709403D

 51 55  0     0  0  0  0  0  0999 V2000
    4.8791    1.0198   -0.4205 C   0  0  0  0  0  0  0  0  0  0  0  0
    3.7001    1.7338   -0.5109 C   0  0  0  0  0  0  0  0  0  0  0  0
    3.5982    2.9827    0.0883 C   0  0  0  0  0  0  0  0  0  0  0  0
    4.6851    3.5125    0.7721 C   0  0  0  0  0  0  0  0  0  0  0  0
    5.8601    2.7913    0.8630 C   0  0  0  0  0  0  0  0  0  0  0  0
    5.9577    1.5469    0.2651 C   0  0  0  0  0  0  0  0  0  0  0  0
    7.3386    3.5081    1.7991 Br  0  0  0  0  0  0  0  0  0  0  0  0
    2.4064    3.7075   -0.0015 N   0  0  0  0  0  0  0  0  0  0  0  0
    1.1958    3.0481    0.0150 C   0  0  0  0  0  0  0  0  0  0  0  0
   -0.0194    3.7504   -0.1963 C   0  0  0  0  0  0  0  0  0  0  0  0
   -0.0398    5.1230   -0.4272 C   0  0  0  0  0  0  0  0  0  0  0  0
   -1.2577    5.7631   -0.6289 C   0  0  0  0  0  0  0  0  0  0  0  0
   -1.6320    7.1528   -0.8902 C   0  0  0  0  0  0  0  0  0  0  0  0
   -2.9271    7.2026   -0.9992 N   0  0  0  0  0  0  0  0  0  0  0  0
   -3.4782    5.9290   -0.8292 N   0  0  0  0  0  0  0  0  0  0  0  0
   -2.4672    5.0277   -0.6000 C   0  0  0  0  0  0  0  0  0  0  0  0
   -2.4495    3.6631   -0.3703 C   0  0  0  0  0  0  0  0  0  0  0  0
   -1.2330    3.0119   -0.1673 C   0  0  0  0  0  0  0  0  0  0  0  0
   -1.1736    1.6865    0.0529 N   0  0  0  0  0  0  0  0  0  0  0  0
   -0.0204    1.0947    0.2464 C   0  0  0  0  0  0  0  0  0  0  0  0
    1.1355    1.7411    0.2283 N   0  0  0  0  0  0  0  0  0  0  0  0
   -4.9062    5.6070   -0.8865 C   0  0  0  0  0  0  0  0  0  0  0  0
   -5.2932    5.2585   -2.3251 C   0  0  0  0  0  0  0  0  0  0  0  0
   -7.0170    3.7008   -1.6399 C   0  0  0  0  0  0  0  0  0  0  0  0
   -8.5242    3.4347   -1.6751 C   0  0  0  0  0  0  0  0  0  0  0  0
   -8.9590    3.3638   -3.0358 O   0  0  0  0  0  0  0  0  0  0  0  0
   -8.6910    4.5500   -3.7883 C   0  0  0  0  0  0  0  0  0  0  0  0
   -7.1855    4.8275   -3.7745 C   0  0  0  0  0  0  0  0  0  0  0  0
    4.9585    0.0487   -0.8863 H   0  0  0  0  0  0  0  0  0  0  0  0
    2.8580    1.3211   -1.0466 H   0  0  0  0  0  0  0  0  0  0  0  0
    4.6107    4.4855    1.2350 H   0  0  0  0  0  0  0  0  0  0  0  0
    6.8784    0.9867    0.3339 H   0  0  0  0  0  0  0  0  0  0  0  0
    2.4310    4.6743   -0.0754 H   0  0  0  0  0  0  0  0  0  0  0  0
    0.8819    5.6856   -0.4499 H   0  0  0  0  0  0  0  0  0  0  0  0
   -0.9537    7.9887   -0.9771 H   0  0  0  0  0  0  0  0  0  0  0  0
   -3.3737    3.1047   -0.3492 H   0  0  0  0  0  0  0  0  0  0  0  0
   -0.0118    0.0296    0.4247 H   0  0  0  0  0  0  0  0  0  0  0  0
   -5.1129    4.7555   -0.2382 H   0  0  0  0  0  0  0  0  0  0  0  0
   -5.4863    6.4673   -0.5524 H   0  0  0  0  0  0  0  0  0  0  0  0
   -5.0865    6.1100   -2.9734 H   0  0  0  0  0  0  0  0  0  0  0  0
   -4.7131    4.3983   -2.6591 H   0  0  0  0  0  0  0  0  0  0  0  0
   -6.4890    2.8658   -2.1004 H   0  0  0  0  0  0  0  0  0  0  0  0
   -6.6912    3.8125   -0.6057 H   0  0  0  0  0  0  0  0  0  0  0  0
   -9.0487    4.2439   -1.1671 H   0  0  0  0  0  0  0  0  0  0  0  0
   -8.7388    2.4904   -1.1748 H   0  0  0  0  0  0  0  0  0  0  0  0
   -9.2204    5.3917   -3.3418 H   0  0  0  0  0  0  0  0  0  0  0  0
   -9.0265    4.4131   -4.8164 H   0  0  0  0  0  0  0  0  0  0  0  0
   -6.9827    5.7615   -4.2985 H   0  0  0  0  0  0  0  0  0  0  0  0
   -6.6602    4.0104   -4.2691 H   0  0  0  0  0  0  0  0  0  0  0  0
   -6.7400    4.9551   -2.3707 N   0  3  0  0  0  0  0  0  0  0  0  0
   -7.2561    5.7225   -1.9248 H   0  0  0  0  0  0  0  0  0  0  0  0
  1  6  2  0  0  0  0
  1  2  1  0  0  0  0
  1 29  1  0  0  0  0
  2  3  2  0  0  0  0
  2 30  1  0  0  0  0
  3  4  1  0  0  0  0
  3  8  1  0  0  0  0
  4  5  2  0  0  0  0
  4 31  1  0  0  0  0
  5  6  1  0  0  0  0
  5  7  1  0  0  0  0
  6 32  1  0  0  0  0
  8  9  1  0  0  0  0
  8 33  1  0  0  0  0
  9 21  2  0  0  0  0
  9 10  1  0  0  0  0
 10 18  2  0  0  0  0
 10 11  1  0  0  0  0
 11 12  2  0  0  0  0
 11 34  1  0  0  0  0
 12 16  1  0  0  0  0
 12 13  1  0  0  0  0
 13 14  2  0  0  0  0
 13 35  1  0  0  0  0
 14 15  1  0  0  0  0
 15 16  1  0  0  0  0
 15 22  1  0  0  0  0
 16 17  2  0  0  0  0
 17 18  1  0  0  0  0
 17 36  1  0  0  0  0
 18 19  1  0  0  0  0
 19 20  2  0  0  0  0
 20 21  1  0  0  0  0
 20 37  1  0  0  0  0
 22 23  1  0  0  0  0
 22 38  1  0  0  0  0
 22 39  1  0  0  0  0
 23 40  1  0  0  0  0
 23 41  1  0  0  0  0
 23 50  1  0  0  0  0
 24 25  1  0  0  0  0
 24 42  1  0  0  0  0
 24 43  1  0  0  0  0
 24 50  1  0  0  0  0
 25 26  1  0  0  0  0
 25 44  1  0  0  0  0
 25 45  1  0  0  0  0
 26 27  1  0  0  0  0
 27 28  1  0  0  0  0
 27 46  1  0  0  0  0
 27 47  1  0  0  0  0
 28 48  1  0  0  0  0
 28 49  1  0  0  0  0
 28 50  1  0  0  0  0
 50 51  1  0  0  0  0
M  CHG  1  50   1
M  END
$$$$
