ZINC03815130
  -OEChem-08230709403D

 50 53  0     1  0  0  0  0  0999 V2000
   -0.5284   -0.0684   -0.3144 C   0  0  0  0  0  0  0  0  0  0  0  0
   -0.9082    2.0224    0.8462 C   0  0  0  0  0  0  0  0  0  0  0  0
   -1.8109    2.5593   -0.2344 C   0  0  0  0  0  0  0  0  0  0  0  0
   -1.4444    2.9214   -1.4720 C   0  0  0  0  0  0  0  0  0  0  0  0
   -2.5346    3.3593   -2.1777 N   0  0  0  0  0  0  0  0  0  0  0  0
   -2.5153    3.6708   -3.0961 H   0  0  0  0  0  0  0  0  0  0  0  0
   -3.6621    3.2968   -1.3863 C   0  0  0  0  0  0  0  0  0  0  0  0
   -3.2563    2.7907   -0.1286 C   0  0  0  0  0  0  0  0  0  0  0  0
   -4.1792    2.6118    0.8918 C   0  0  0  0  0  0  0  0  0  0  0  0
   -5.5167    2.9359    0.6685 C   0  0  0  0  0  0  0  0  0  0  0  0
   -5.9260    3.4441   -0.5931 C   0  0  0  0  0  0  0  0  0  0  0  0
   -4.9873    3.6194   -1.6116 C   0  0  0  0  0  0  0  0  0  0  0  0
   -7.2235    3.7458   -0.7738 N   0  0  0  0  0  0  0  0  0  0  0  0
   -8.0886    3.5731    0.1958 C   0  0  0  0  0  0  0  0  0  0  0  0
   -7.7534    3.1027    1.3873 N   0  0  0  0  0  0  0  0  0  0  0  0
   -6.5017    2.7727    1.6752 C   0  0  0  0  0  0  0  0  0  0  0  0
   -6.1669    2.2843    2.9209 N   0  0  0  0  0  0  0  0  0  0  0  0
   -7.1680    2.0171    3.8590 C   0  0  0  0  0  0  0  0  0  0  0  0
   -8.3997    1.5274    3.4425 C   0  0  0  0  0  0  0  0  0  0  0  0
   -9.3867    1.2639    4.3715 C   0  0  0  0  0  0  0  0  0  0  0  0
   -9.1506    1.4864    5.7158 C   0  0  0  0  0  0  0  0  0  0  0  0
   -7.9253    1.9740    6.1345 C   0  0  0  0  0  0  0  0  0  0  0  0
   -6.9317    2.2352    5.2100 C   0  0  0  0  0  0  0  0  0  0  0  0
   -7.6073    2.2760    7.9740 Br  0  0  0  0  0  0  0  0  0  0  0  0
   -0.3606    0.0242    2.0993 C   0  0  0  0  0  0  0  0  0  0  0  0
   -0.7176   -1.4302    2.2674 C   0  0  0  0  0  0  0  0  0  0  0  0
   -1.4603   -1.9650    1.4786 O   0  0  0  0  0  0  0  0  0  0  0  0
   -0.2106   -2.1315    3.2935 O   0  0  0  0  0  0  0  0  0  0  0  0
   -0.5977   -3.5274    3.3931 C   0  0  0  0  0  0  0  0  0  0  0  0
   -0.7005   -1.1438   -0.2696 H   0  0  0  0  0  0  0  0  0  0  0  0
    0.5405    0.1251   -0.4046 H   0  0  0  0  0  0  0  0  0  0  0  0
   -1.0469    0.3469   -1.1786 H   0  0  0  0  0  0  0  0  0  0  0  0
   -1.1921    2.4555    1.8054 H   0  0  0  0  0  0  0  0  0  0  0  0
    0.1252    2.2855    0.6204 H   0  0  0  0  0  0  0  0  0  0  0  0
   -0.4367    2.8730   -1.8577 H   0  0  0  0  0  0  0  0  0  0  0  0
   -3.8646    2.2248    1.8498 H   0  0  0  0  0  0  0  0  0  0  0  0
   -5.2954    4.0052   -2.5721 H   0  0  0  0  0  0  0  0  0  0  0  0
   -9.1226    3.8267    0.0146 H   0  0  0  0  0  0  0  0  0  0  0  0
   -5.2367    2.1261    3.1459 H   0  0  0  0  0  0  0  0  0  0  0  0
   -8.5851    1.3532    2.3928 H   0  0  0  0  0  0  0  0  0  0  0  0
  -10.3442    0.8832    4.0479 H   0  0  0  0  0  0  0  0  0  0  0  0
   -9.9241    1.2788    6.4404 H   0  0  0  0  0  0  0  0  0  0  0  0
   -5.9738    2.6116    5.5375 H   0  0  0  0  0  0  0  0  0  0  0  0
    0.7182    0.1217    1.9773 H   0  0  0  0  0  0  0  0  0  0  0  0
   -0.6783    0.5806    2.9810 H   0  0  0  0  0  0  0  0  0  0  0  0
   -1.6804   -3.5977    3.4970 H   0  0  0  0  0  0  0  0  0  0  0  0
   -0.2839   -4.0565    2.4932 H   0  0  0  0  0  0  0  0  0  0  0  0
   -0.1193   -3.9759    4.2637 H   0  0  0  0  0  0  0  0  0  0  0  0
   -1.0661    0.5543    0.9135 N   0  3  2  0  0  0  0  0  0  0  0  0
   -2.0649    0.3295    0.9915 H   0  0  0  0  0  0  0  0  0  0  0  0
  1 30  1  0  0  0  0
  1 31  1  0  0  0  0
  1 32  1  0  0  0  0
  1 49  1  0  0  0  0
  2  3  1  0  0  0  0
  2 33  1  0  0  0  0
  2 34  1  0  0  0  0
  2 49  1  0  0  0  0
  3  8  1  0  0  0  0
  3  4  2  0  0  0  0
  4  5  1  0  0  0  0
  4 35  1  0  0  0  0
  5  6  1  0  0  0  0
  5  7  1  0  0  0  0
  7 12  2  0  0  0  0
  7  8  1  0  0  0  0
  8  9  2  0  0  0  0
  9 10  1  0  0  0  0
  9 36  1  0  0  0  0
 10 16  2  0  0  0  0
 10 11  1  0  0  0  0
 11 12  1  0  0  0  0
 11 13  2  0  0  0  0
 12 37  1  0  0  0  0
 13 14  1  0  0  0  0
 14 15  2  0  0  0  0
 14 38  1  0  0  0  0
 15 16  1  0  0  0  0
 16 17  1  0  0  0  0
 17 18  1  0  0  0  0
 17 39  1  0  0  0  0
 18 23  2  0  0  0  0
 18 19  1  0  0  0  0
 19 20  2  0  0  0  0
 19 40  1  0  0  0  0
 20 21  1  0  0  0  0
 20 41  1  0  0  0  0
 21 22  2  0  0  0  0
 21 42  1  0  0  0  0
 22 23  1  0  0  0  0
 22 24  1  0  0  0  0
 23 43  1  0  0  0  0
 25 26  1  0  0  0  0
 25 44  1  0  0  0  0
 25 45  1  0  0  0  0
 25 49  1  0  0  0  0
 26 27  2  0  0  0  0
 26 28  1  0  0  0  0
 28 29  1  0  0  0  0
 29 46  1  0  0  0  0
 29 47  1  0  0  0  0
 29 48  1  0  0  0  0
 49 50  1  0  0  0  0
M  CHG  1  49   1
M  END
$$$$
