ZINC03815308
  -OEChem-08230709403D

 46 49  0     0  0  0  0  0  0999 V2000
   -9.4546   -4.6479   -0.9492 C   0  0  0  0  0  0  0  0  0  0  0  0
   -8.9344   -4.1755   -2.2347 N   0  0  0  0  0  0  0  0  0  0  0  0
   -7.8393   -3.3493   -2.2619 C   0  0  0  0  0  0  0  0  0  0  0  0
   -7.3255   -2.8851   -3.4921 C   0  0  0  0  0  0  0  0  0  0  0  0
   -7.9362   -3.2683   -4.7080 C   0  0  0  0  0  0  0  0  0  0  0  0
   -9.0282   -4.0933   -4.6711 C   0  0  0  0  0  0  0  0  0  0  0  0
   -9.5359   -4.5568   -3.3779 C   0  0  0  0  0  0  0  0  0  0  0  0
  -10.5068   -5.2913   -3.3361 O   0  0  0  0  0  0  0  0  0  0  0  0
   -9.6908   -4.5129   -5.9281 C   0  0  0  0  0  0  0  0  0  0  0  0
  -10.7328   -3.7517   -6.4589 C   0  0  0  0  0  0  0  0  0  0  0  0
  -11.3436   -4.1463   -7.6331 C   0  0  0  0  0  0  0  0  0  0  0  0
  -10.9306   -5.2984   -8.2778 C   0  0  0  0  0  0  0  0  0  0  0  0
   -9.9015   -6.0601   -7.7544 C   0  0  0  0  0  0  0  0  0  0  0  0
   -9.2793   -5.6743   -6.5832 C   0  0  0  0  0  0  0  0  0  0  0  0
   -7.9887   -6.6323   -5.9273 Cl  0  0  0  0  0  0  0  0  0  0  0  0
  -11.2566   -2.3087   -5.6482 Cl  0  0  0  0  0  0  0  0  0  0  0  0
   -6.2039   -2.0424   -3.4758 C   0  0  0  0  0  0  0  0  0  0  0  0
   -5.6746   -1.7178   -2.3111 N   0  0  0  0  0  0  0  0  0  0  0  0
   -6.1852   -2.1737   -1.1726 C   0  0  0  0  0  0  0  0  0  0  0  0
   -7.2389   -2.9749   -1.1378 N   0  0  0  0  0  0  0  0  0  0  0  0
   -5.5914   -1.8029    0.0188 N   0  0  0  0  0  0  0  0  0  0  0  0
   -4.5481   -0.8724    0.0199 C   0  0  0  0  0  0  0  0  0  0  0  0
   -4.5383    0.1635   -0.9055 C   0  0  0  0  0  0  0  0  0  0  0  0
   -3.5058    1.0807   -0.9019 C   0  0  0  0  0  0  0  0  0  0  0  0
   -2.4826    0.9687    0.0215 C   0  0  0  0  0  0  0  0  0  0  0  0
   -2.4865   -0.0644    0.9407 C   0  0  0  0  0  0  0  0  0  0  0  0
   -3.5187   -0.9820    0.9460 C   0  0  0  0  0  0  0  0  0  0  0  0
   -1.3573    1.9712    0.0221 C   0  0  0  0  0  0  0  0  0  0  0  0
   -1.7105    3.1223    0.9283 C   0  0  0  0  0  0  0  0  0  0  0  0
   -2.7675    3.1280    1.5137 O   0  0  0  0  0  0  0  0  0  0  0  0
  -10.2009   -3.9451   -0.5788 H   0  0  0  0  0  0  0  0  0  0  0  0
   -9.9125   -5.6283   -1.0808 H   0  0  0  0  0  0  0  0  0  0  0  0
   -8.6374   -4.7219   -0.2317 H   0  0  0  0  0  0  0  0  0  0  0  0
   -7.5472   -2.9157   -5.6518 H   0  0  0  0  0  0  0  0  0  0  0  0
  -12.1478   -3.5560   -8.0470 H   0  0  0  0  0  0  0  0  0  0  0  0
  -11.4141   -5.6047   -9.1937 H   0  0  0  0  0  0  0  0  0  0  0  0
   -9.5840   -6.9588   -8.2624 H   0  0  0  0  0  0  0  0  0  0  0  0
   -5.7824   -1.6676   -4.3968 H   0  0  0  0  0  0  0  0  0  0  0  0
   -5.8986   -2.1882    0.8543 H   0  0  0  0  0  0  0  0  0  0  0  0
   -5.3369    0.2513   -1.6271 H   0  0  0  0  0  0  0  0  0  0  0  0
   -3.4978    1.8866   -1.6209 H   0  0  0  0  0  0  0  0  0  0  0  0
   -1.6836   -0.1516    1.6577 H   0  0  0  0  0  0  0  0  0  0  0  0
   -3.5235   -1.7860    1.6671 H   0  0  0  0  0  0  0  0  0  0  0  0
   -1.2000    2.3414   -0.9910 H   0  0  0  0  0  0  0  0  0  0  0  0
   -0.4453    1.4935    0.3800 H   0  0  0  0  0  0  0  0  0  0  0  0
   -0.8485    4.1385    1.0896 O   0  5  0  0  0  0  0  0  0  0  0  0
  1  2  1  0  0  0  0
  1 31  1  0  0  0  0
  1 32  1  0  0  0  0
  1 33  1  0  0  0  0
  2  7  1  0  0  0  0
  2  3  1  0  0  0  0
  3 20  2  0  0  0  0
  3  4  1  0  0  0  0
  4  5  1  0  0  0  0
  4 17  2  0  0  0  0
  5  6  2  0  0  0  0
  5 34  1  0  0  0  0
  6  7  1  0  0  0  0
  6  9  1  0  0  0  0
  7  8  2  0  0  0  0
  9 14  2  0  0  0  0
  9 10  1  0  0  0  0
 10 11  2  0  0  0  0
 10 16  1  0  0  0  0
 11 12  1  0  0  0  0
 11 35  1  0  0  0  0
 12 13  2  0  0  0  0
 12 36  1  0  0  0  0
 13 14  1  0  0  0  0
 13 37  1  0  0  0  0
 14 15  1  0  0  0  0
 17 18  1  0  0  0  0
 17 38  1  0  0  0  0
 18 19  2  0  0  0  0
 19 20  1  0  0  0  0
 19 21  1  0  0  0  0
 21 22  1  0  0  0  0
 21 39  1  0  0  0  0
 22 27  2  0  0  0  0
 22 23  1  0  0  0  0
 23 24  2  0  0  0  0
 23 40  1  0  0  0  0
 24 25  1  0  0  0  0
 24 41  1  0  0  0  0
 25 26  2  0  0  0  0
 25 28  1  0  0  0  0
 26 27  1  0  0  0  0
 26 42  1  0  0  0  0
 27 43  1  0  0  0  0
 28 29  1  0  0  0  0
 28 44  1  0  0  0  0
 28 45  1  0  0  0  0
 29 30  2  0  0  0  0
 29 46  1  0  0  0  0
M  CHG  1  46  -1
M  END
$$$$
