ZINC03815103
  -OEChem-08230709403D

 43 46  0     1  0  0  0  0  0999 V2000
    3.0383   10.6703    0.4011 C   0  0  0  0  0  0  0  0  0  0  0  0
    2.4613    9.4198    0.5074 C   0  0  0  0  0  0  0  0  0  0  0  0
    3.0661    8.3238   -0.0944 C   0  0  0  0  0  0  0  0  0  0  0  0
    4.2532    8.4880   -0.7969 C   0  0  0  0  0  0  0  0  0  0  0  0
    4.8226    9.7424   -0.9040 C   0  0  0  0  0  0  0  0  0  0  0  0
    4.2170   10.8321   -0.3030 C   0  0  0  0  0  0  0  0  0  0  0  0
    6.4348    9.9691   -1.8660 Br  0  0  0  0  0  0  0  0  0  0  0  0
    2.4845    7.0572    0.0115 N   0  0  0  0  0  0  0  0  0  0  0  0
    1.1114    6.9272    0.0181 C   0  0  0  0  0  0  0  0  0  0  0  0
    0.5004    5.6678    0.2459 C   0  0  0  0  0  0  0  0  0  0  0  0
    1.2543    4.5170    0.4712 C   0  0  0  0  0  0  0  0  0  0  0  0
    0.6052    3.3099    0.6879 C   0  0  0  0  0  0  0  0  0  0  0  0
    1.0743    1.9440    0.9484 C   0  0  0  0  0  0  0  0  0  0  0  0
   -0.0143    1.1724    1.0777 C   0  0  0  0  0  0  0  0  0  0  0  0
   -1.1480    1.9255    0.9169 N   0  0  0  0  0  0  0  0  0  0  0  0
   -0.8082    3.2411    0.6820 C   0  0  0  0  0  0  0  0  0  0  0  0
   -1.5591    4.3802    0.4593 C   0  0  0  0  0  0  0  0  0  0  0  0
   -0.9181    5.6008    0.2396 C   0  0  0  0  0  0  0  0  0  0  0  0
   -1.6138    6.7300    0.0190 N   0  0  0  0  0  0  0  0  0  0  0  0
   -0.9923    7.8657   -0.1856 C   0  0  0  0  0  0  0  0  0  0  0  0
    0.3274    7.9762   -0.1888 N   0  0  0  0  0  0  0  0  0  0  0  0
   -2.5175    1.4100    0.9872 C   0  0  2  0  0  0  0  0  0  0  0  0
   -3.1449    1.9471    0.2759 H   0  0  0  0  0  0  0  0  0  0  0  0
   -3.0652    1.6086    2.4019 C   0  0  0  0  0  0  0  0  0  0  0  0
   -4.5350    1.1855    2.4439 C   0  0  0  0  0  0  0  0  0  0  0  0
   -5.0465    1.3710    3.7652 O   0  0  0  0  0  0  0  0  0  0  0  0
   -2.5192    0.0173    0.6670 O   0  0  0  0  0  0  0  0  0  0  0  0
    2.5682   11.5227    0.8690 H   0  0  0  0  0  0  0  0  0  0  0  0
    1.5405    9.2944    1.0577 H   0  0  0  0  0  0  0  0  0  0  0  0
    4.7283    7.6370   -1.2622 H   0  0  0  0  0  0  0  0  0  0  0  0
    4.6663   11.8109   -0.3839 H   0  0  0  0  0  0  0  0  0  0  0  0
    3.0465    6.2696    0.0803 H   0  0  0  0  0  0  0  0  0  0  0  0
    2.3333    4.5645    0.4767 H   0  0  0  0  0  0  0  0  0  0  0  0
    2.1024    1.6212    1.0218 H   0  0  0  0  0  0  0  0  0  0  0  0
    0.0000    0.1107    1.2752 H   0  0  0  0  0  0  0  0  0  0  0  0
   -2.6377    4.3261    0.4555 H   0  0  0  0  0  0  0  0  0  0  0  0
   -1.5838    8.7524   -0.3595 H   0  0  0  0  0  0  0  0  0  0  0  0
   -2.4921    1.0009    3.1021 H   0  0  0  0  0  0  0  0  0  0  0  0
   -2.9816    2.6593    2.6797 H   0  0  0  0  0  0  0  0  0  0  0  0
   -5.1081    1.7932    1.7437 H   0  0  0  0  0  0  0  0  0  0  0  0
   -4.6186    0.1348    2.1661 H   0  0  0  0  0  0  0  0  0  0  0  0
   -5.9756    1.1224    3.8658 H   0  0  0  0  0  0  0  0  0  0  0  0
   -1.9800   -0.5234    1.2603 H   0  0  0  0  0  0  0  0  0  0  0  0
  1  6  2  0  0  0  0
  1  2  1  0  0  0  0
  1 28  1  0  0  0  0
  2  3  2  0  0  0  0
  2 29  1  0  0  0  0
  3  4  1  0  0  0  0
  3  8  1  0  0  0  0
  4  5  2  0  0  0  0
  4 30  1  0  0  0  0
  5  6  1  0  0  0  0
  5  7  1  0  0  0  0
  6 31  1  0  0  0  0
  8  9  1  0  0  0  0
  8 32  1  0  0  0  0
  9 21  2  0  0  0  0
  9 10  1  0  0  0  0
 10 18  2  0  0  0  0
 10 11  1  0  0  0  0
 11 12  2  0  0  0  0
 11 33  1  0  0  0  0
 12 16  1  0  0  0  0
 12 13  1  0  0  0  0
 13 14  2  0  0  0  0
 13 34  1  0  0  0  0
 14 15  1  0  0  0  0
 14 35  1  0  0  0  0
 15 16  1  0  0  0  0
 15 22  1  0  0  0  0
 16 17  2  0  0  0  0
 17 18  1  0  0  0  0
 17 36  1  0  0  0  0
 18 19  1  0  0  0  0
 19 20  2  0  0  0  0
 20 21  1  0  0  0  0
 20 37  1  0  0  0  0
 22 23  1  0  0  0  0
 22 24  1  0  0  0  0
 22 27  1  0  0  0  0
 24 25  1  0  0  0  0
 24 38  1  0  0  0  0
 24 39  1  0  0  0  0
 25 26  1  0  0  0  0
 25 40  1  0  0  0  0
 25 41  1  0  0  0  0
 26 42  1  0  0  0  0
 27 43  1  0  0  0  0
M  END
$$$$
