ZINC03815366
  -OEChem-08230709403D

 40 43  0     0  0  0  0  0  0999 V2000
    3.9732    3.6195    0.0048 C   0  0  0  0  0  0  0  0  0  0  0  0
    3.3738    4.4689   -0.9079 C   0  0  0  0  0  0  0  0  0  0  0  0
    2.0036    4.6319   -0.9063 C   0  0  0  0  0  0  0  0  0  0  0  0
    1.2229    3.9385    0.0177 C   0  0  0  0  0  0  0  0  0  0  0  0
    1.8331    3.0880    0.9387 C   0  0  0  0  0  0  0  0  0  0  0  0
    3.2038    2.9289    0.9240 C   0  0  0  0  0  0  0  0  0  0  0  0
   -0.2494    4.1097    0.0250 C   0  0  0  0  0  0  0  0  0  0  0  0
   -0.9291    5.2829    0.0338 C   0  0  0  0  0  0  0  0  0  0  0  0
   -2.2760    5.0342    0.0389 N   0  0  0  0  0  0  0  0  0  0  0  0
   -2.5086    3.6829    0.0334 C   0  0  0  0  0  0  0  0  0  0  0  0
   -1.2577    3.0416    0.0304 C   0  0  0  0  0  0  0  0  0  0  0  0
   -1.2185    1.6412    0.0167 C   0  0  0  0  0  0  0  0  0  0  0  0
   -2.3712    0.9770    0.0186 N   0  0  0  0  0  0  0  0  0  0  0  0
   -3.5254    1.6185    0.0275 C   0  0  0  0  0  0  0  0  0  0  0  0
   -3.6085    2.9315    0.0346 N   0  0  0  0  0  0  0  0  0  0  0  0
   -0.0111    0.9658    0.0074 N   0  0  0  0  0  0  0  0  0  0  0  0
   -3.2725    6.0187    0.0487 C   0  0  0  0  0  0  0  0  0  0  0  0
   -4.3120    5.9657   -0.8708 C   0  0  0  0  0  0  0  0  0  0  0  0
   -5.2957    6.9348   -0.8551 C   0  0  0  0  0  0  0  0  0  0  0  0
   -5.2405    7.9634    0.0678 C   0  0  0  0  0  0  0  0  0  0  0  0
   -4.2041    8.0217    0.9811 C   0  0  0  0  0  0  0  0  0  0  0  0
   -3.2199    7.0525    0.9739 C   0  0  0  0  0  0  0  0  0  0  0  0
   -4.1477    9.1442    1.9850 C   0  0  0  0  0  0  0  0  0  0  0  0
   -3.4090   10.2375    1.4363 O   0  0  0  0  0  0  0  0  0  0  0  0
    5.0459    3.4948   -0.0004 H   0  0  0  0  0  0  0  0  0  0  0  0
    3.9795    5.0051   -1.6234 H   0  0  0  0  0  0  0  0  0  0  0  0
    1.5367    5.2950   -1.6196 H   0  0  0  0  0  0  0  0  0  0  0  0
    1.2339    2.5517    1.6596 H   0  0  0  0  0  0  0  0  0  0  0  0
    3.6772    2.2675    1.6345 H   0  0  0  0  0  0  0  0  0  0  0  0
   -0.4774    6.2639    0.0370 H   0  0  0  0  0  0  0  0  0  0  0  0
   -4.4385    1.0417    0.0287 H   0  0  0  0  0  0  0  0  0  0  0  0
    0.0021   -0.0041    0.0020 H   0  0  0  0  0  0  0  0  0  0  0  0
    0.8223    1.4622    0.0021 H   0  0  0  0  0  0  0  0  0  0  0  0
   -4.3532    5.1653   -1.5946 H   0  0  0  0  0  0  0  0  0  0  0  0
   -6.1063    6.8921   -1.5674 H   0  0  0  0  0  0  0  0  0  0  0  0
   -6.0084    8.7228    0.0750 H   0  0  0  0  0  0  0  0  0  0  0  0
   -2.4105    7.0986    1.6875 H   0  0  0  0  0  0  0  0  0  0  0  0
   -5.1602    9.4719    2.2209 H   0  0  0  0  0  0  0  0  0  0  0  0
   -3.6580    8.7946    2.8939 H   0  0  0  0  0  0  0  0  0  0  0  0
   -3.3321   10.9973    2.0294 H   0  0  0  0  0  0  0  0  0  0  0  0
  1  6  2  0  0  0  0
  1  2  1  0  0  0  0
  1 25  1  0  0  0  0
  2  3  2  0  0  0  0
  2 26  1  0  0  0  0
  3  4  1  0  0  0  0
  3 27  1  0  0  0  0
  4  5  2  0  0  0  0
  4  7  1  0  0  0  0
  5  6  1  0  0  0  0
  5 28  1  0  0  0  0
  6 29  1  0  0  0  0
  7 11  1  0  0  0  0
  7  8  2  0  0  0  0
  8  9  1  0  0  0  0
  8 30  1  0  0  0  0
  9 10  1  0  0  0  0
  9 17  1  0  0  0  0
 10 15  2  0  0  0  0
 10 11  1  0  0  0  0
 11 12  2  0  0  0  0
 12 13  1  0  0  0  0
 12 16  1  0  0  0  0
 13 14  2  0  0  0  0
 14 15  1  0  0  0  0
 14 31  1  0  0  0  0
 16 32  1  0  0  0  0
 16 33  1  0  0  0  0
 17 22  2  0  0  0  0
 17 18  1  0  0  0  0
 18 19  2  0  0  0  0
 18 34  1  0  0  0  0
 19 20  1  0  0  0  0
 19 35  1  0  0  0  0
 20 21  2  0  0  0  0
 20 36  1  0  0  0  0
 21 22  1  0  0  0  0
 21 23  1  0  0  0  0
 22 37  1  0  0  0  0
 23 24  1  0  0  0  0
 23 38  1  0  0  0  0
 23 39  1  0  0  0  0
 24 40  1  0  0  0  0
M  END
$$$$
