ZINC03833859
  -OEChem-08230709403D

 79 84  0     1  0  0  0  0  0999 V2000
    3.5831   -4.9893   -0.1998 C   0  0  0  0  0  0  0  0  0  0  0  0
    3.1343   -3.8605   -0.8596 C   0  0  0  0  0  0  0  0  0  0  0  0
    3.3649   -2.6081   -0.3218 C   0  0  0  0  0  0  0  0  0  0  0  0
    4.0445   -2.4845    0.8756 C   0  0  0  0  0  0  0  0  0  0  0  0
    4.4982   -3.6130    1.5325 C   0  0  0  0  0  0  0  0  0  0  0  0
    4.2627   -4.8657    0.9976 C   0  0  0  0  0  0  0  0  0  0  0  0
    4.2962   -1.1192    1.4617 C   0  0  0  0  0  0  0  0  0  0  0  0
    3.2370   -0.8150    2.5139 C   0  0  2  0  0  0  0  0  0  0  0  0
    3.2095   -1.6909    3.1996 H   0  0  0  0  0  0  0  0  0  0  0  0
    1.8477   -0.6790    1.9071 C   0  0  1  0  0  0  0  0  0  0  0  0
    1.1471   -0.3526    2.6904 H   0  0  0  0  0  0  0  0  0  0  0  0
    1.7700    0.3043    0.7570 C   0  0  2  0  0  0  0  0  0  0  0  0
    2.0239   -0.2206   -0.1696 H   0  0  0  0  0  0  0  0  0  0  0  0
    2.6774    1.5118    0.8819 C   0  0  2  0  0  0  0  0  0  0  0  0
    3.7141    1.2471    0.7261 H   0  0  0  0  0  0  0  0  0  0  0  0
    2.5108    2.1228    2.2078 N   0  0  0  0  0  0  0  0  0  0  0  0
    3.0858    1.5455    3.2757 C   0  0  0  0  0  0  0  0  0  0  0  0
    3.1364    2.2100    4.2984 O   0  0  0  0  0  0  0  0  0  0  0  0
    3.6034    0.3326    3.3298 N   0  0  0  0  0  0  0  0  0  0  0  0
    4.6633    0.1214    4.3297 C   0  0  0  0  0  0  0  0  0  0  0  0
    5.9872    0.5603    3.7588 C   0  0  0  0  0  0  0  0  0  0  0  0
    6.3546    1.8933    3.8133 C   0  0  0  0  0  0  0  0  0  0  0  0
    7.5683    2.3046    3.2920 C   0  0  0  0  0  0  0  0  0  0  0  0
    8.4207    1.3867    2.7135 C   0  0  0  0  0  0  0  0  0  0  0  0
    8.0560    0.0407    2.6548 C   0  0  0  0  0  0  0  0  0  0  0  0
    6.8323   -0.3685    3.1883 C   0  0  0  0  0  0  0  0  0  0  0  0
    8.9640   -0.9481    2.0366 C   0  0  0  0  0  0  0  0  0  0  0  0
    8.6038   -2.1008    1.8980 O   0  0  0  0  0  0  0  0  0  0  0  0
   10.1915   -0.5717    1.6264 N   0  0  0  0  0  0  0  0  0  0  0  0
   11.0448   -1.5009    1.0454 C   0  0  0  0  0  0  0  0  0  0  0  0
   12.2691   -1.3281    0.5860 N   0  0  0  0  0  0  0  0  0  0  0  0
   12.9484   -2.3278    0.0589 C   0  0  0  0  0  0  0  0  0  0  0  0
   12.3599   -3.5474   -0.0027 C   0  0  0  0  0  0  0  0  0  0  0  0
   10.7765   -3.1899    0.7444 S   0  0  0  0  0  0  0  0  0  0  0  0
    1.7509    3.3629    2.3510 C   0  0  0  0  0  0  0  0  0  0  0  0
    0.2903    3.0328    2.6646 C   0  0  0  0  0  0  0  0  0  0  0  0
   -0.2607    3.4832    4.0190 C   0  0  0  0  0  0  0  0  0  0  0  0
   -0.6975    4.1989    2.7382 C   0  0  0  0  0  0  0  0  0  0  0  0
    2.2696    2.5439   -0.1788 C   0  0  0  0  0  0  0  0  0  0  0  0
    2.5677    1.9981   -1.5515 C   0  0  0  0  0  0  0  0  0  0  0  0
    3.8379    2.1206   -2.0832 C   0  0  0  0  0  0  0  0  0  0  0  0
    4.1123    1.6165   -3.3407 C   0  0  0  0  0  0  0  0  0  0  0  0
    3.1144    0.9976   -4.0702 C   0  0  0  0  0  0  0  0  0  0  0  0
    1.8430    0.8794   -3.5405 C   0  0  0  0  0  0  0  0  0  0  0  0
    1.5696    1.3801   -2.2814 C   0  0  0  0  0  0  0  0  0  0  0  0
    0.4181    0.7619    0.6381 O   0  0  0  0  0  0  0  0  0  0  0  0
    1.4058   -1.9656    1.4461 O   0  0  0  0  0  0  0  0  0  0  0  0
    3.4024   -5.9678   -0.6196 H   0  0  0  0  0  0  0  0  0  0  0  0
    2.6033   -3.9571   -1.7950 H   0  0  0  0  0  0  0  0  0  0  0  0
    3.0143   -1.7262   -0.8372 H   0  0  0  0  0  0  0  0  0  0  0  0
    5.0331   -3.5162    2.4658 H   0  0  0  0  0  0  0  0  0  0  0  0
    4.6130   -5.7477    1.5132 H   0  0  0  0  0  0  0  0  0  0  0  0
    4.2488   -0.3701    0.6713 H   0  0  0  0  0  0  0  0  0  0  0  0
    5.2834   -1.0983    1.9233 H   0  0  0  0  0  0  0  0  0  0  0  0
    4.4415    0.7051    5.2231 H   0  0  0  0  0  0  0  0  0  0  0  0
    4.7123   -0.9361    4.5894 H   0  0  0  0  0  0  0  0  0  0  0  0
    5.6911    2.6158    4.2651 H   0  0  0  0  0  0  0  0  0  0  0  0
    7.8494    3.3463    3.3384 H   0  0  0  0  0  0  0  0  0  0  0  0
    9.3680    1.7090    2.3072 H   0  0  0  0  0  0  0  0  0  0  0  0
    6.5463   -1.4093    3.1504 H   0  0  0  0  0  0  0  0  0  0  0  0
   10.4789    0.3481    1.7370 H   0  0  0  0  0  0  0  0  0  0  0  0
   13.9506   -2.1785   -0.3148 H   0  0  0  0  0  0  0  0  0  0  0  0
   12.7438   -4.4790   -0.3914 H   0  0  0  0  0  0  0  0  0  0  0  0
    1.8037    3.9307    1.4220 H   0  0  0  0  0  0  0  0  0  0  0  0
    2.1720    3.9553    3.1633 H   0  0  0  0  0  0  0  0  0  0  0  0
   -0.0752    2.0883    2.2615 H   0  0  0  0  0  0  0  0  0  0  0  0
   -0.9887    2.8351    4.5069 H   0  0  0  0  0  0  0  0  0  0  0  0
    0.4172    4.0152    4.6864 H   0  0  0  0  0  0  0  0  0  0  0  0
   -0.3067    5.2013    2.5637 H   0  0  0  0  0  0  0  0  0  0  0  0
   -1.7127    4.0217    2.3832 H   0  0  0  0  0  0  0  0  0  0  0  0
    1.2027    2.7503   -0.0937 H   0  0  0  0  0  0  0  0  0  0  0  0
    2.8314    3.4651   -0.0242 H   0  0  0  0  0  0  0  0  0  0  0  0
    4.6166    2.6074   -1.5148 H   0  0  0  0  0  0  0  0  0  0  0  0
    5.1055    1.7091   -3.7547 H   0  0  0  0  0  0  0  0  0  0  0  0
    3.3280    0.6068   -5.0541 H   0  0  0  0  0  0  0  0  0  0  0  0
    1.0633    0.3962   -4.1105 H   0  0  0  0  0  0  0  0  0  0  0  0
    0.5762    1.2881   -1.8677 H   0  0  0  0  0  0  0  0  0  0  0  0
   -0.2318    0.0510    0.5532 H   0  0  0  0  0  0  0  0  0  0  0  0
    0.4969   -1.9742    1.1160 H   0  0  0  0  0  0  0  0  0  0  0  0
  1  6  2  0  0  0  0
  1  2  1  0  0  0  0
  1 48  1  0  0  0  0
  2  3  2  0  0  0  0
  2 49  1  0  0  0  0
  3  4  1  0  0  0  0
  3 50  1  0  0  0  0
  4  5  2  0  0  0  0
  4  7  1  0  0  0  0
  5  6  1  0  0  0  0
  5 51  1  0  0  0  0
  6 52  1  0  0  0  0
  7  8  1  0  0  0  0
  7 53  1  0  0  0  0
  7 54  1  0  0  0  0
  8  9  1  0  0  0  0
  8 19  1  0  0  0  0
  8 10  1  0  0  0  0
 10 11  1  0  0  0  0
 10 12  1  0  0  0  0
 10 47  1  0  0  0  0
 12 13  1  0  0  0  0
 12 14  1  0  0  0  0
 12 46  1  0  0  0  0
 14 15  1  0  0  0  0
 14 16  1  0  0  0  0
 14 39  1  0  0  0  0
 16 17  1  0  0  0  0
 16 35  1  0  0  0  0
 17 18  2  0  0  0  0
 17 19  1  0  0  0  0
 19 20  1  0  0  0  0
 20 21  1  0  0  0  0
 20 55  1  0  0  0  0
 20 56  1  0  0  0  0
 21 26  2  0  0  0  0
 21 22  1  0  0  0  0
 22 23  2  0  0  0  0
 22 57  1  0  0  0  0
 23 24  1  0  0  0  0
 23 58  1  0  0  0  0
 24 25  2  0  0  0  0
 24 59  1  0  0  0  0
 25 26  1  0  0  0  0
 25 27  1  0  0  0  0
 26 60  1  0  0  0  0
 27 28  2  0  0  0  0
 27 29  1  0  0  0  0
 29 30  1  0  0  0  0
 29 61  1  0  0  0  0
 30 34  1  0  0  0  0
 30 31  2  0  0  0  0
 31 32  1  0  0  0  0
 32 33  2  0  0  0  0
 32 62  1  0  0  0  0
 33 34  1  0  0  0  0
 33 63  1  0  0  0  0
 35 36  1  0  0  0  0
 35 64  1  0  0  0  0
 35 65  1  0  0  0  0
 36 38  1  0  0  0  0
 36 37  1  0  0  0  0
 36 66  1  0  0  0  0
 37 38  1  0  0  0  0
 37 67  1  0  0  0  0
 37 68  1  0  0  0  0
 38 69  1  0  0  0  0
 38 70  1  0  0  0  0
 39 40  1  0  0  0  0
 39 71  1  0  0  0  0
 39 72  1  0  0  0  0
 40 45  2  0  0  0  0
 40 41  1  0  0  0  0
 41 42  2  0  0  0  0
 41 73  1  0  0  0  0
 42 43  1  0  0  0  0
 42 74  1  0  0  0  0
 43 44  2  0  0  0  0
 43 75  1  0  0  0  0
 44 45  1  0  0  0  0
 44 76  1  0  0  0  0
 45 77  1  0  0  0  0
 46 78  1  0  0  0  0
 47 79  1  0  0  0  0
M  END
$$$$
