ZINC03815631
  -OEChem-08230709403D

 73 77  0     1  0  0  0  0  0999 V2000
   -1.4322   -5.4378   -5.0484 C   0  0  0  0  0  0  0  0  0  0  0  0
   -1.8470   -3.9991   -4.7339 C   0  0  0  0  0  0  0  0  0  0  0  0
   -1.4760   -3.0928   -5.9095 C   0  0  1  0  0  0  0  0  0  0  0  0
   -0.4104   -3.1866   -6.1184 H   0  0  0  0  0  0  0  0  0  0  0  0
   -2.2765   -3.5076   -7.1456 C   0  0  0  0  0  0  0  0  0  0  0  0
   -1.7390   -2.7687   -8.3729 C   0  0  0  0  0  0  0  0  0  0  0  0
   -2.0669   -1.2769   -8.2572 C   0  0  0  0  0  0  0  0  0  0  0  0
   -1.5974   -0.5595   -9.5257 C   0  0  0  0  0  0  0  0  0  0  0  0
   -2.2226   -1.1505  -10.6667 O   0  0  0  0  0  0  0  0  0  0  0  0
   -1.9121   -2.5330  -10.8516 C   0  0  0  0  0  0  0  0  0  0  0  0
   -2.3962   -3.3301   -9.6375 C   0  0  0  0  0  0  0  0  0  0  0  0
   -1.7955   -1.6619   -5.5610 C   0  0  0  0  0  0  0  0  0  0  0  0
   -0.7896   -0.7913   -5.3540 C   0  0  0  0  0  0  0  0  0  0  0  0
   -1.0805    0.5536   -5.0334 C   0  0  0  0  0  0  0  0  0  0  0  0
   -2.4043    0.9397   -4.9277 C   0  0  0  0  0  0  0  0  0  0  0  0
   -3.4060   -0.0124   -5.1535 C   0  0  0  0  0  0  0  0  0  0  0  0
   -4.5803    0.3080   -5.0704 O   0  0  0  0  0  0  0  0  0  0  0  0
   -3.0765   -1.2784   -5.4621 O   0  0  0  0  0  0  0  0  0  0  0  0
   -2.7627    2.3620   -4.5815 C   0  0  2  0  0  0  0  0  0  0  0  0
   -2.8164    2.4698   -3.4982 H   0  0  0  0  0  0  0  0  0  0  0  0
   -4.0992    2.7050   -5.1874 C   0  0  0  0  0  0  0  0  0  0  0  0
   -4.2438    2.7479   -6.5623 C   0  0  0  0  0  0  0  0  0  0  0  0
   -5.4684    3.0617   -7.1223 C   0  0  0  0  0  0  0  0  0  0  0  0
   -6.5517    3.3339   -6.3098 C   0  0  0  0  0  0  0  0  0  0  0  0
   -6.4100    3.2916   -4.9288 C   0  0  0  0  0  0  0  0  0  0  0  0
   -5.1769    2.9807   -4.3694 C   0  0  0  0  0  0  0  0  0  0  0  0
   -7.5033    3.5668   -4.1042 N   0  0  0  0  0  0  0  0  0  0  0  0
   -8.9812    2.8986   -4.4383 S   0  0  0  0  0  0  0  0  0  0  0  0
   -9.2306    3.1332   -5.8175 O   0  0  0  0  0  0  0  0  0  0  0  0
   -9.8665    3.3402   -3.4182 O   0  0  0  0  0  0  0  0  0  0  0  0
   -8.8202    1.1547   -4.2451 C   0  0  0  0  0  0  0  0  0  0  0  0
   -9.0261    0.4620   -3.1088 C   0  0  0  0  0  0  0  0  0  0  0  0
   -8.7939   -0.8552   -3.4003 N   0  0  0  0  0  0  0  0  0  0  0  0
   -8.4541   -0.9215   -4.7055 C   0  0  0  0  0  0  0  0  0  0  0  0
   -8.4671    0.2848   -5.2031 N   0  0  0  0  0  0  0  0  0  0  0  0
   -8.8957   -1.9824   -2.4701 C   0  0  0  0  0  0  0  0  0  0  0  0
   -1.6941    3.3064   -5.1356 C   0  0  0  0  0  0  0  0  0  0  0  0
   -0.7975    4.0279   -4.1274 C   0  0  0  0  0  0  0  0  0  0  0  0
   -1.8770    4.8047   -4.8853 C   0  0  0  0  0  0  0  0  0  0  0  0
   -0.0829    1.4456   -4.8285 O   0  0  0  0  0  0  0  0  0  0  0  0
   -1.7602   -6.0948   -4.2429 H   0  0  0  0  0  0  0  0  0  0  0  0
   -1.8934   -5.7525   -5.9845 H   0  0  0  0  0  0  0  0  0  0  0  0
   -0.3475   -5.4910   -5.1418 H   0  0  0  0  0  0  0  0  0  0  0  0
   -1.3300   -3.6598   -3.8363 H   0  0  0  0  0  0  0  0  0  0  0  0
   -2.9239   -3.9590   -4.5700 H   0  0  0  0  0  0  0  0  0  0  0  0
   -2.1796   -4.5826   -7.2974 H   0  0  0  0  0  0  0  0  0  0  0  0
   -3.3267   -3.2544   -7.0002 H   0  0  0  0  0  0  0  0  0  0  0  0
   -0.6588   -2.9010   -8.4339 H   0  0  0  0  0  0  0  0  0  0  0  0
   -3.1434   -1.1483   -8.1448 H   0  0  0  0  0  0  0  0  0  0  0  0
   -1.5565   -0.8580   -7.3900 H   0  0  0  0  0  0  0  0  0  0  0  0
   -0.5151   -0.6530   -9.6150 H   0  0  0  0  0  0  0  0  0  0  0  0
   -1.8677    0.4949   -9.4684 H   0  0  0  0  0  0  0  0  0  0  0  0
   -0.8339   -2.6523  -10.9583 H   0  0  0  0  0  0  0  0  0  0  0  0
   -2.4091   -2.9005  -11.7494 H   0  0  0  0  0  0  0  0  0  0  0  0
   -2.1211   -4.3781   -9.7565 H   0  0  0  0  0  0  0  0  0  0  0  0
   -3.4796   -3.2452   -9.5533 H   0  0  0  0  0  0  0  0  0  0  0  0
    0.2362   -1.1187   -5.4374 H   0  0  0  0  0  0  0  0  0  0  0  0
   -3.3983    2.5356   -7.1998 H   0  0  0  0  0  0  0  0  0  0  0  0
   -5.5779    3.0944   -8.1962 H   0  0  0  0  0  0  0  0  0  0  0  0
   -7.5078    3.5797   -6.7479 H   0  0  0  0  0  0  0  0  0  0  0  0
   -5.0622    2.9513   -3.2959 H   0  0  0  0  0  0  0  0  0  0  0  0
   -7.3969    4.1493   -3.3359 H   0  0  0  0  0  0  0  0  0  0  0  0
   -9.3176    0.8677   -2.1513 H   0  0  0  0  0  0  0  0  0  0  0  0
   -8.2077   -1.8231   -5.2468 H   0  0  0  0  0  0  0  0  0  0  0  0
   -7.9317   -2.1434   -1.9875 H   0  0  0  0  0  0  0  0  0  0  0  0
   -9.6486   -1.7621   -1.7133 H   0  0  0  0  0  0  0  0  0  0  0  0
   -9.1825   -2.8803   -3.0174 H   0  0  0  0  0  0  0  0  0  0  0  0
   -1.2459    3.0054   -6.0825 H   0  0  0  0  0  0  0  0  0  0  0  0
   -0.9689    3.8297   -3.0694 H   0  0  0  0  0  0  0  0  0  0  0  0
    0.2405    4.2019   -4.4112 H   0  0  0  0  0  0  0  0  0  0  0  0
   -1.5488    5.4894   -5.6674 H   0  0  0  0  0  0  0  0  0  0  0  0
   -2.7588    5.1176   -4.3263 H   0  0  0  0  0  0  0  0  0  0  0  0
    0.2152    1.4982   -3.9101 H   0  0  0  0  0  0  0  0  0  0  0  0
  1  2  1  0  0  0  0
  1 41  1  0  0  0  0
  1 42  1  0  0  0  0
  1 43  1  0  0  0  0
  2  3  1  0  0  0  0
  2 44  1  0  0  0  0
  2 45  1  0  0  0  0
  3  4  1  0  0  0  0
  3  5  1  0  0  0  0
  3 12  1  0  0  0  0
  5  6  1  0  0  0  0
  5 46  1  0  0  0  0
  5 47  1  0  0  0  0
  6 11  1  0  0  0  0
  6  7  1  0  0  0  0
  6 48  1  0  0  0  0
  7  8  1  0  0  0  0
  7 49  1  0  0  0  0
  7 50  1  0  0  0  0
  8  9  1  0  0  0  0
  8 51  1  0  0  0  0
  8 52  1  0  0  0  0
  9 10  1  0  0  0  0
 10 11  1  0  0  0  0
 10 53  1  0  0  0  0
 10 54  1  0  0  0  0
 11 55  1  0  0  0  0
 11 56  1  0  0  0  0
 12 18  1  0  0  0  0
 12 13  2  0  0  0  0
 13 14  1  0  0  0  0
 13 57  1  0  0  0  0
 14 15  2  0  0  0  0
 14 40  1  0  0  0  0
 15 16  1  0  0  0  0
 15 19  1  0  0  0  0
 16 17  2  0  0  0  0
 16 18  1  0  0  0  0
 19 20  1  0  0  0  0
 19 21  1  0  0  0  0
 19 37  1  0  0  0  0
 21 26  2  0  0  0  0
 21 22  1  0  0  0  0
 22 23  2  0  0  0  0
 22 58  1  0  0  0  0
 23 24  1  0  0  0  0
 23 59  1  0  0  0  0
 24 25  2  0  0  0  0
 24 60  1  0  0  0  0
 25 26  1  0  0  0  0
 25 27  1  0  0  0  0
 26 61  1  0  0  0  0
 27 28  1  0  0  0  0
 27 62  1  0  0  0  0
 28 29  2  0  0  0  0
 28 30  2  0  0  0  0
 28 31  1  0  0  0  0
 31 35  1  0  0  0  0
 31 32  2  0  0  0  0
 32 33  1  0  0  0  0
 32 63  1  0  0  0  0
 33 34  1  0  0  0  0
 33 36  1  0  0  0  0
 34 35  2  0  0  0  0
 34 64  1  0  0  0  0
 36 65  1  0  0  0  0
 36 66  1  0  0  0  0
 36 67  1  0  0  0  0
 37 39  1  0  0  0  0
 37 38  1  0  0  0  0
 37 68  1  0  0  0  0
 38 39  1  0  0  0  0
 38 69  1  0  0  0  0
 38 70  1  0  0  0  0
 39 71  1  0  0  0  0
 39 72  1  0  0  0  0
 40 73  1  0  0  0  0
M  END
$$$$
