ZINC03833861
  -OEChem-08230709403D

 74 78  0     1  0  0  0  0  0999 V2000
    1.5408    6.9442   -2.8838 C   0  0  0  0  0  0  0  0  0  0  0  0
    2.7103    6.4900   -2.3033 C   0  0  0  0  0  0  0  0  0  0  0  0
    2.6772    5.4214   -1.4271 C   0  0  0  0  0  0  0  0  0  0  0  0
    1.4748    4.8069   -1.1314 C   0  0  0  0  0  0  0  0  0  0  0  0
    0.3055    5.2603   -1.7130 C   0  0  0  0  0  0  0  0  0  0  0  0
    0.3384    6.3295   -2.5885 C   0  0  0  0  0  0  0  0  0  0  0  0
    1.4388    3.6416   -0.1765 C   0  0  0  0  0  0  0  0  0  0  0  0
    1.3625    4.1407    1.2020 N   0  0  0  0  0  0  0  0  0  0  0  0
    2.6232    4.4878    1.8497 C   0  0  1  0  0  0  0  0  0  0  0  0
    3.2430    5.0168    1.1056 H   0  0  0  0  0  0  0  0  0  0  0  0
    2.3965    5.4306    3.0306 C   0  0  1  0  0  0  0  0  0  0  0  0
    1.6392    6.1755    2.7557 H   0  0  0  0  0  0  0  0  0  0  0  0
    1.9380    4.6939    4.2701 C   0  0  2  0  0  0  0  0  0  0  0  0
    2.7576    4.0890    4.6643 H   0  0  0  0  0  0  0  0  0  0  0  0
    0.7262    3.8117    4.0708 C   0  0  2  0  0  0  0  0  0  0  0  0
    1.0471    2.8049    3.7949 H   0  0  0  0  0  0  0  0  0  0  0  0
   -0.1586    4.3347    3.0325 N   0  0  0  0  0  0  0  0  0  0  0  0
    0.1629    4.2692    1.7318 C   0  0  0  0  0  0  0  0  0  0  0  0
   -0.7696    4.3362    0.9426 O   0  0  0  0  0  0  0  0  0  0  0  0
   -1.4367    4.9447    3.4225 C   0  0  0  0  0  0  0  0  0  0  0  0
   -1.2779    6.4416    3.4934 C   0  0  0  0  0  0  0  0  0  0  0  0
   -0.8213    7.0339    4.6560 C   0  0  0  0  0  0  0  0  0  0  0  0
   -0.6715    8.4067    4.7196 C   0  0  0  0  0  0  0  0  0  0  0  0
   -0.9870    9.1879    3.6237 C   0  0  0  0  0  0  0  0  0  0  0  0
   -1.4486    8.5960    2.4629 C   0  0  0  0  0  0  0  0  0  0  0  0
   -1.5943    7.2229    2.3978 C   0  0  0  0  0  0  0  0  0  0  0  0
   -0.0520    3.7258    5.3899 C   0  0  0  0  0  0  0  0  0  0  0  0
   -1.1191    2.7853    5.2530 O   0  0  0  0  0  0  0  0  0  0  0  0
   -1.9117    2.5891    6.3394 C   0  0  0  0  0  0  0  0  0  0  0  0
   -1.6639    3.2832    7.5148 C   0  0  0  0  0  0  0  0  0  0  0  0
   -2.4742    3.0858    8.6160 C   0  0  0  0  0  0  0  0  0  0  0  0
   -3.5251    2.1896    8.5508 C   0  0  0  0  0  0  0  0  0  0  0  0
   -3.7707    1.4924    7.3823 C   0  0  0  0  0  0  0  0  0  0  0  0
   -2.9664    1.6901    6.2767 C   0  0  0  0  0  0  0  0  0  0  0  0
    1.6181    5.6683    5.2766 O   0  0  0  0  0  0  0  0  0  0  0  0
    3.6166    6.1266    3.3205 O   0  0  0  0  0  0  0  0  0  0  0  0
    3.3714    3.2273    2.2699 C   0  0  0  0  0  0  0  0  0  0  0  0
    3.7638    2.4961    1.1065 O   0  0  0  0  0  0  0  0  0  0  0  0
    4.5345    1.3938    1.3013 C   0  0  0  0  0  0  0  0  0  0  0  0
    4.8216    0.9656    2.5893 C   0  0  0  0  0  0  0  0  0  0  0  0
    5.6008   -0.1583    2.7846 C   0  0  0  0  0  0  0  0  0  0  0  0
    6.1031   -0.8501    1.6979 C   0  0  0  0  0  0  0  0  0  0  0  0
    5.8230   -0.4221    0.4134 C   0  0  0  0  0  0  0  0  0  0  0  0
    5.0400    0.6982    0.2127 C   0  0  0  0  0  0  0  0  0  0  0  0
    1.5665    7.7796   -3.5679 H   0  0  0  0  0  0  0  0  0  0  0  0
    3.6497    6.9703   -2.5341 H   0  0  0  0  0  0  0  0  0  0  0  0
    3.5915    5.0636   -0.9771 H   0  0  0  0  0  0  0  0  0  0  0  0
   -0.6339    4.7802   -1.4819 H   0  0  0  0  0  0  0  0  0  0  0  0
   -0.5753    6.6849   -3.0415 H   0  0  0  0  0  0  0  0  0  0  0  0
    0.5654    3.0249   -0.3885 H   0  0  0  0  0  0  0  0  0  0  0  0
    2.3429    3.0449   -0.2973 H   0  0  0  0  0  0  0  0  0  0  0  0
   -2.1988    4.6947    2.6844 H   0  0  0  0  0  0  0  0  0  0  0  0
   -1.7378    4.5646    4.3987 H   0  0  0  0  0  0  0  0  0  0  0  0
   -0.5784    6.4239    5.5135 H   0  0  0  0  0  0  0  0  0  0  0  0
   -0.3106    8.8690    5.6265 H   0  0  0  0  0  0  0  0  0  0  0  0
   -0.8725   10.2606    3.6743 H   0  0  0  0  0  0  0  0  0  0  0  0
   -1.6951    9.2064    1.6066 H   0  0  0  0  0  0  0  0  0  0  0  0
   -1.9549    6.7605    1.4909 H   0  0  0  0  0  0  0  0  0  0  0  0
    0.6179    3.4019    6.1865 H   0  0  0  0  0  0  0  0  0  0  0  0
   -0.4608    4.7060    5.6351 H   0  0  0  0  0  0  0  0  0  0  0  0
   -0.8406    3.9802    7.5675 H   0  0  0  0  0  0  0  0  0  0  0  0
   -2.2840    3.6287    9.5301 H   0  0  0  0  0  0  0  0  0  0  0  0
   -4.1550    2.0337    9.4141 H   0  0  0  0  0  0  0  0  0  0  0  0
   -4.5922    0.7930    7.3339 H   0  0  0  0  0  0  0  0  0  0  0  0
   -3.1589    1.1455    5.3641 H   0  0  0  0  0  0  0  0  0  0  0  0
    2.3609    6.2353    5.5253 H   0  0  0  0  0  0  0  0  0  0  0  0
    3.5502    6.7452    4.0608 H   0  0  0  0  0  0  0  0  0  0  0  0
    4.2575    3.5041    2.8411 H   0  0  0  0  0  0  0  0  0  0  0  0
    2.7208    2.6071    2.8865 H   0  0  0  0  0  0  0  0  0  0  0  0
    4.4330    1.5081    3.4385 H   0  0  0  0  0  0  0  0  0  0  0  0
    5.8216   -0.4942    3.7870 H   0  0  0  0  0  0  0  0  0  0  0  0
    6.7154   -1.7262    1.8528 H   0  0  0  0  0  0  0  0  0  0  0  0
    6.2165   -0.9642   -0.4338 H   0  0  0  0  0  0  0  0  0  0  0  0
    4.8212    1.0319   -0.7909 H   0  0  0  0  0  0  0  0  0  0  0  0
  1  6  2  0  0  0  0
  1  2  1  0  0  0  0
  1 45  1  0  0  0  0
  2  3  2  0  0  0  0
  2 46  1  0  0  0  0
  3  4  1  0  0  0  0
  3 47  1  0  0  0  0
  4  5  2  0  0  0  0
  4  7  1  0  0  0  0
  5  6  1  0  0  0  0
  5 48  1  0  0  0  0
  6 49  1  0  0  0  0
  7  8  1  0  0  0  0
  7 50  1  0  0  0  0
  7 51  1  0  0  0  0
  8 18  1  0  0  0  0
  8  9  1  0  0  0  0
  9 10  1  0  0  0  0
  9 11  1  0  0  0  0
  9 37  1  0  0  0  0
 11 12  1  0  0  0  0
 11 13  1  0  0  0  0
 11 36  1  0  0  0  0
 13 14  1  0  0  0  0
 13 15  1  0  0  0  0
 13 35  1  0  0  0  0
 15 16  1  0  0  0  0
 15 17  1  0  0  0  0
 15 27  1  0  0  0  0
 17 18  1  0  0  0  0
 17 20  1  0  0  0  0
 18 19  2  0  0  0  0
 20 21  1  0  0  0  0
 20 52  1  0  0  0  0
 20 53  1  0  0  0  0
 21 26  2  0  0  0  0
 21 22  1  0  0  0  0
 22 23  2  0  0  0  0
 22 54  1  0  0  0  0
 23 24  1  0  0  0  0
 23 55  1  0  0  0  0
 24 25  2  0  0  0  0
 24 56  1  0  0  0  0
 25 26  1  0  0  0  0
 25 57  1  0  0  0  0
 26 58  1  0  0  0  0
 27 28  1  0  0  0  0
 27 59  1  0  0  0  0
 27 60  1  0  0  0  0
 28 29  1  0  0  0  0
 29 34  2  0  0  0  0
 29 30  1  0  0  0  0
 30 31  2  0  0  0  0
 30 61  1  0  0  0  0
 31 32  1  0  0  0  0
 31 62  1  0  0  0  0
 32 33  2  0  0  0  0
 32 63  1  0  0  0  0
 33 34  1  0  0  0  0
 33 64  1  0  0  0  0
 34 65  1  0  0  0  0
 35 66  1  0  0  0  0
 36 67  1  0  0  0  0
 37 38  1  0  0  0  0
 37 68  1  0  0  0  0
 37 69  1  0  0  0  0
 38 39  1  0  0  0  0
 39 44  2  0  0  0  0
 39 40  1  0  0  0  0
 40 41  2  0  0  0  0
 40 70  1  0  0  0  0
 41 42  1  0  0  0  0
 41 71  1  0  0  0  0
 42 43  2  0  0  0  0
 42 72  1  0  0  0  0
 43 44  1  0  0  0  0
 43 73  1  0  0  0  0
 44 74  1  0  0  0  0
M  END
$$$$
