ZINC03815641
  -OEChem-08230709403D

 75 81  0     1  0  0  0  0  0999 V2000
   -0.1579    1.9514    0.9781 C   0  0  0  0  0  0  0  0  0  0  0  0
   -1.3471    2.6013    0.8449 C   0  0  0  0  0  0  0  0  0  0  0  0
   -1.3588    3.9863    0.6153 C   0  0  0  0  0  0  0  0  0  0  0  0
   -2.5665    4.6964    0.4774 C   0  0  0  0  0  0  0  0  0  0  0  0
   -2.5008    6.0415    0.2504 C   0  0  0  0  0  0  0  0  0  0  0  0
   -1.2615    6.6720    0.1617 C   0  0  0  0  0  0  0  0  0  0  0  0
   -0.1388    6.0079    0.2910 N   0  0  0  0  0  0  0  0  0  0  0  0
   -0.1329    4.6898    0.5140 C   0  0  0  0  0  0  0  0  0  0  0  0
    1.0741    3.9826    0.6514 C   0  0  0  0  0  0  0  0  0  0  0  0
    1.0486    2.6409    0.8784 C   0  0  0  0  0  0  0  0  0  0  0  0
    2.6143    4.8299    0.5297 S   0  0  0  0  0  0  0  0  0  0  0  0
    2.5199    5.9676    1.3758 O   0  0  0  0  0  0  0  0  0  0  0  0
    3.6307    3.8487    0.6829 O   0  0  0  0  0  0  0  0  0  0  0  0
    2.7377    5.4013   -1.0197 N   0  0  0  0  0  0  0  0  0  0  0  0
    1.8448    6.3721   -1.4792 C   0  0  0  0  0  0  0  0  0  0  0  0
    1.5398    7.4697   -0.6839 C   0  0  0  0  0  0  0  0  0  0  0  0
    0.6571    8.4279   -1.1414 C   0  0  0  0  0  0  0  0  0  0  0  0
    0.0771    8.2962   -2.3901 C   0  0  0  0  0  0  0  0  0  0  0  0
    0.3784    7.2051   -3.1841 C   0  0  0  0  0  0  0  0  0  0  0  0
    1.2643    6.2454   -2.7346 C   0  0  0  0  0  0  0  0  0  0  0  0
   -0.2560    7.0658   -4.5440 C   0  0  1  0  0  0  0  0  0  0  0  0
    0.1824    6.2140   -5.0639 H   0  0  0  0  0  0  0  0  0  0  0  0
   -1.7390    6.8492   -4.3866 C   0  0  0  0  0  0  0  0  0  0  0  0
   -2.6281    7.3734   -5.3072 C   0  0  0  0  0  0  0  0  0  0  0  0
   -4.0097    7.1418   -5.1240 C   0  0  0  0  0  0  0  0  0  0  0  0
   -4.4334    6.4306   -4.0623 C   0  0  0  0  0  0  0  0  0  0  0  0
   -3.5654    5.9305   -3.1711 O   0  0  0  0  0  0  0  0  0  0  0  0
   -2.2411    6.1187   -3.3026 C   0  0  0  0  0  0  0  0  0  0  0  0
   -1.4748    5.6517   -2.4759 O   0  0  0  0  0  0  0  0  0  0  0  0
   -5.9093    6.1928   -3.8719 C   0  0  0  0  0  0  0  0  0  0  0  0
   -6.1882    4.6885   -3.8761 C   0  0  0  0  0  0  0  0  0  0  0  0
   -7.6979    4.4495   -3.8081 C   0  0  0  0  0  0  0  0  0  0  0  0
   -8.2443    3.7297   -2.5735 C   0  0  0  0  0  0  0  0  0  0  0  0
   -8.1903    3.0053   -3.9200 C   0  0  0  0  0  0  0  0  0  0  0  0
   -6.3538    6.7902   -2.5353 C   0  0  0  0  0  0  0  0  0  0  0  0
   -6.1909    8.3110   -2.5770 C   0  0  0  0  0  0  0  0  0  0  0  0
   -5.1907    8.9412   -1.6057 C   0  0  0  0  0  0  0  0  0  0  0  0
   -6.6935    9.1086   -1.3720 C   0  0  0  0  0  0  0  0  0  0  0  0
   -2.1829    8.0905   -6.3657 O   0  0  0  0  0  0  0  0  0  0  0  0
   -0.0098    8.3399   -5.3545 C   0  0  0  0  0  0  0  0  0  0  0  0
    0.5748    8.1815   -6.7595 C   0  0  0  0  0  0  0  0  0  0  0  0
    1.4432    8.7344   -5.6266 C   0  0  0  0  0  0  0  0  0  0  0  0
   -0.1498    0.8867    1.1589 H   0  0  0  0  0  0  0  0  0  0  0  0
   -2.2758    2.0552    0.9193 H   0  0  0  0  0  0  0  0  0  0  0  0
   -3.5186    4.1914    0.5487 H   0  0  0  0  0  0  0  0  0  0  0  0
   -3.4086    6.6161    0.1402 H   0  0  0  0  0  0  0  0  0  0  0  0
   -1.2249    7.7364   -0.0178 H   0  0  0  0  0  0  0  0  0  0  0  0
    1.9787    2.1020    0.9833 H   0  0  0  0  0  0  0  0  0  0  0  0
    3.4300    5.0617   -1.6081 H   0  0  0  0  0  0  0  0  0  0  0  0
    1.9929    7.5735    0.2910 H   0  0  0  0  0  0  0  0  0  0  0  0
    0.4196    9.2813   -0.5237 H   0  0  0  0  0  0  0  0  0  0  0  0
   -0.6130    9.0471   -2.7455 H   0  0  0  0  0  0  0  0  0  0  0  0
    1.5026    5.3957   -3.3571 H   0  0  0  0  0  0  0  0  0  0  0  0
   -4.7239    7.5374   -5.8310 H   0  0  0  0  0  0  0  0  0  0  0  0
   -6.4614    6.6670   -4.6833 H   0  0  0  0  0  0  0  0  0  0  0  0
   -5.7915    4.2480   -4.7907 H   0  0  0  0  0  0  0  0  0  0  0  0
   -5.7082    4.2275   -3.0128 H   0  0  0  0  0  0  0  0  0  0  0  0
   -8.3176    5.2284   -4.2523 H   0  0  0  0  0  0  0  0  0  0  0  0
   -7.5283    3.4264   -1.8097 H   0  0  0  0  0  0  0  0  0  0  0  0
   -9.2237    4.0351   -2.2052 H   0  0  0  0  0  0  0  0  0  0  0  0
   -9.1342    2.8340   -4.4376 H   0  0  0  0  0  0  0  0  0  0  0  0
   -7.4387    2.2253   -4.0421 H   0  0  0  0  0  0  0  0  0  0  0  0
   -7.3999    6.5417   -2.3562 H   0  0  0  0  0  0  0  0  0  0  0  0
   -5.7405    6.3810   -1.7325 H   0  0  0  0  0  0  0  0  0  0  0  0
   -6.2934    8.7679   -3.5613 H   0  0  0  0  0  0  0  0  0  0  0  0
   -4.6488    8.2724   -0.9370 H   0  0  0  0  0  0  0  0  0  0  0  0
   -4.6349    9.8130   -1.9509 H   0  0  0  0  0  0  0  0  0  0  0  0
   -7.1263   10.0905   -1.5634 H   0  0  0  0  0  0  0  0  0  0  0  0
   -7.1402    8.5500   -0.5495 H   0  0  0  0  0  0  0  0  0  0  0  0
   -1.9957    7.5580   -7.1509 H   0  0  0  0  0  0  0  0  0  0  0  0
   -0.7284    9.1440   -5.1962 H   0  0  0  0  0  0  0  0  0  0  0  0
    0.7841    7.1696   -7.1064 H   0  0  0  0  0  0  0  0  0  0  0  0
    0.2411    8.8816   -7.5254 H   0  0  0  0  0  0  0  0  0  0  0  0
    1.6804    9.7981   -5.6477 H   0  0  0  0  0  0  0  0  0  0  0  0
    2.2237    8.0865   -5.2279 H   0  0  0  0  0  0  0  0  0  0  0  0
  1 10  2  0  0  0  0
  1  2  1  0  0  0  0
  1 43  1  0  0  0  0
  2  3  2  0  0  0  0
  2 44  1  0  0  0  0
  3  8  1  0  0  0  0
  3  4  1  0  0  0  0
  4  5  2  0  0  0  0
  4 45  1  0  0  0  0
  5  6  1  0  0  0  0
  5 46  1  0  0  0  0
  6  7  2  0  0  0  0
  6 47  1  0  0  0  0
  7  8  1  0  0  0  0
  8  9  2  0  0  0  0
  9 10  1  0  0  0  0
  9 11  1  0  0  0  0
 10 48  1  0  0  0  0
 11 12  2  0  0  0  0
 11 13  2  0  0  0  0
 11 14  1  0  0  0  0
 14 15  1  0  0  0  0
 14 49  1  0  0  0  0
 15 20  2  0  0  0  0
 15 16  1  0  0  0  0
 16 17  2  0  0  0  0
 16 50  1  0  0  0  0
 17 18  1  0  0  0  0
 17 51  1  0  0  0  0
 18 19  2  0  0  0  0
 18 52  1  0  0  0  0
 19 20  1  0  0  0  0
 19 21  1  0  0  0  0
 20 53  1  0  0  0  0
 21 22  1  0  0  0  0
 21 23  1  0  0  0  0
 21 40  1  0  0  0  0
 23 28  1  0  0  0  0
 23 24  2  0  0  0  0
 24 25  1  0  0  0  0
 24 39  1  0  0  0  0
 25 26  2  0  0  0  0
 25 54  1  0  0  0  0
 26 27  1  0  0  0  0
 26 30  1  0  0  0  0
 27 28  1  0  0  0  0
 28 29  2  0  0  0  0
 30 31  1  0  0  0  0
 30 35  1  0  0  0  0
 30 55  1  0  0  0  0
 31 32  1  0  0  0  0
 31 56  1  0  0  0  0
 31 57  1  0  0  0  0
 32 34  1  0  0  0  0
 32 33  1  0  0  0  0
 32 58  1  0  0  0  0
 33 34  1  0  0  0  0
 33 59  1  0  0  0  0
 33 60  1  0  0  0  0
 34 61  1  0  0  0  0
 34 62  1  0  0  0  0
 35 36  1  0  0  0  0
 35 63  1  0  0  0  0
 35 64  1  0  0  0  0
 36 38  1  0  0  0  0
 36 37  1  0  0  0  0
 36 65  1  0  0  0  0
 37 38  1  0  0  0  0
 37 66  1  0  0  0  0
 37 67  1  0  0  0  0
 38 68  1  0  0  0  0
 38 69  1  0  0  0  0
 39 70  1  0  0  0  0
 40 42  1  0  0  0  0
 40 41  1  0  0  0  0
 40 71  1  0  0  0  0
 41 42  1  0  0  0  0
 41 72  1  0  0  0  0
 41 73  1  0  0  0  0
 42 74  1  0  0  0  0
 42 75  1  0  0  0  0
M  END
$$$$
