ZINC03815635
  -OEChem-08230709403D

 73 76  0     1  0  0  0  0  0999 V2000
   -5.2290    0.8425    5.1478 C   0  0  0  0  0  0  0  0  0  0  0  0
   -4.3208    0.2062    4.0936 C   0  0  0  0  0  0  0  0  0  0  0  0
   -4.8811    0.4910    2.6987 C   0  0  0  0  0  0  0  0  0  0  0  0
   -4.0387   -0.2403    1.6516 C   0  0  2  0  0  0  0  0  0  0  0  0
   -4.6057    0.0317    0.2537 C   0  0  0  0  0  0  0  0  0  0  0  0
   -5.9621   -0.6188    0.1404 C   0  0  0  0  0  0  0  0  0  0  0  0
   -6.2487   -1.7068    0.8773 C   0  0  3  0  0  0  0  0  0  0  0  0
   -5.2873   -2.2444    1.7656 C   0  0  0  0  0  0  0  0  0  0  0  0
   -5.5474   -3.2416    2.4122 O   0  0  0  0  0  0  0  0  0  0  0  0
   -4.0808   -1.6511    1.8956 O   0  0  0  0  0  0  0  0  0  0  0  0
   -7.6028   -2.3572    0.7567 C   0  0  1  0  0  0  0  0  0  0  0  0
   -8.0823   -2.0297   -0.1657 H   0  0  0  0  0  0  0  0  0  0  0  0
   -7.4378   -3.8781    0.7336 C   0  0  0  0  0  0  0  0  0  0  0  0
   -8.7973   -4.5349    0.4862 C   0  0  0  0  0  0  0  0  0  0  0  0
   -8.4564   -1.9624    1.9343 C   0  0  0  0  0  0  0  0  0  0  0  0
   -7.9767   -2.1267    3.2211 C   0  0  0  0  0  0  0  0  0  0  0  0
   -8.7544   -1.7605    4.3041 C   0  0  0  0  0  0  0  0  0  0  0  0
  -10.0180   -1.2397    4.1043 C   0  0  0  0  0  0  0  0  0  0  0  0
  -10.5050   -1.0787    2.8136 C   0  0  0  0  0  0  0  0  0  0  0  0
   -9.7187   -1.4424    1.7274 C   0  0  0  0  0  0  0  0  0  0  0  0
  -11.7825   -0.5528    2.6080 N   0  0  0  0  0  0  0  0  0  0  0  0
  -13.0560   -1.0909    3.5196 S   0  0  0  0  0  0  0  0  0  0  0  0
  -14.1967   -0.3562    3.0974 O   0  0  0  0  0  0  0  0  0  0  0  0
  -13.0087   -2.5107    3.4853 O   0  0  0  0  0  0  0  0  0  0  0  0
  -12.7403   -0.6167    5.1869 C   0  0  0  0  0  0  0  0  0  0  0  0
  -13.1183    0.5389    5.7661 C   0  0  0  0  0  0  0  0  0  0  0  0
  -12.6730    0.4976    7.0598 N   0  0  0  0  0  0  0  0  0  0  0  0
  -12.0379   -0.6825    7.2263 C   0  0  0  0  0  0  0  0  0  0  0  0
  -12.0865   -1.3458    6.1034 N   0  0  0  0  0  0  0  0  0  0  0  0
  -12.8519    1.5392    8.0744 C   0  0  0  0  0  0  0  0  0  0  0  0
   -6.8859   -0.1104   -0.6992 O   0  0  0  0  0  0  0  0  0  0  0  0
   -2.5913    0.2504    1.7231 C   0  0  0  0  0  0  0  0  0  0  0  0
   -1.7775   -0.3963    0.6003 C   0  0  0  0  0  0  0  0  0  0  0  0
   -0.3519    0.0870    0.6707 C   0  0  0  0  0  0  0  0  0  0  0  0
    0.5757   -0.6044    1.4273 C   0  0  0  0  0  0  0  0  0  0  0  0
    1.8848   -0.1643    1.4873 C   0  0  0  0  0  0  0  0  0  0  0  0
    2.2650    0.9702    0.7950 C   0  0  0  0  0  0  0  0  0  0  0  0
    1.3361    1.6648    0.0431 C   0  0  0  0  0  0  0  0  0  0  0  0
    0.0270    1.2248   -0.0170 C   0  0  0  0  0  0  0  0  0  0  0  0
   -5.2732    1.9196    4.9869 H   0  0  0  0  0  0  0  0  0  0  0  0
   -6.2311    0.4215    5.0658 H   0  0  0  0  0  0  0  0  0  0  0  0
   -4.8299    0.6396    6.1415 H   0  0  0  0  0  0  0  0  0  0  0  0
   -4.2767   -0.8710    4.2545 H   0  0  0  0  0  0  0  0  0  0  0  0
   -3.3187    0.6272    4.1756 H   0  0  0  0  0  0  0  0  0  0  0  0
   -4.8492    1.5634    2.5063 H   0  0  0  0  0  0  0  0  0  0  0  0
   -5.9124    0.1425    2.6433 H   0  0  0  0  0  0  0  0  0  0  0  0
   -4.6913    1.0183    0.1149 H   0  0  0  0  0  0  0  0  0  0  0  0
   -3.9358   -0.3840   -0.4990 H   0  0  0  0  0  0  0  0  0  0  0  0
   -6.7492   -4.1567   -0.0641 H   0  0  0  0  0  0  0  0  0  0  0  0
   -7.0403   -4.2151    1.6909 H   0  0  0  0  0  0  0  0  0  0  0  0
   -9.4859   -4.2563    1.2839 H   0  0  0  0  0  0  0  0  0  0  0  0
   -9.1948   -4.1979   -0.4711 H   0  0  0  0  0  0  0  0  0  0  0  0
   -8.6798   -5.6184    0.4697 H   0  0  0  0  0  0  0  0  0  0  0  0
   -6.9909   -2.5381    3.3802 H   0  0  0  0  0  0  0  0  0  0  0  0
   -8.3751   -1.8859    5.3075 H   0  0  0  0  0  0  0  0  0  0  0  0
  -10.6268   -0.9583    4.9508 H   0  0  0  0  0  0  0  0  0  0  0  0
  -10.0942   -1.3182    0.7225 H   0  0  0  0  0  0  0  0  0  0  0  0
  -11.9237    0.1277    1.9313 H   0  0  0  0  0  0  0  0  0  0  0  0
  -13.6675    1.3433    5.2996 H   0  0  0  0  0  0  0  0  0  0  0  0
  -11.5708   -1.0228    8.1386 H   0  0  0  0  0  0  0  0  0  0  0  0
  -13.7808    1.3626    8.6166 H   0  0  0  0  0  0  0  0  0  0  0  0
  -12.0141    1.5153    8.7713 H   0  0  0  0  0  0  0  0  0  0  0  0
  -12.8938    2.5148    7.5900 H   0  0  0  0  0  0  0  0  0  0  0  0
   -6.1477   -2.1337   -0.0214 H   0  0  0  0  0  0  0  0  0  0  0  0
   -2.1621   -0.0233    2.6869 H   0  0  0  0  0  0  0  0  0  0  0  0
   -2.5691    1.3343    1.6100 H   0  0  0  0  0  0  0  0  0  0  0  0
   -2.2068   -0.1226   -0.3635 H   0  0  0  0  0  0  0  0  0  0  0  0
   -1.7998   -1.4802    0.7134 H   0  0  0  0  0  0  0  0  0  0  0  0
    0.2788   -1.4909    1.9679 H   0  0  0  0  0  0  0  0  0  0  0  0
    2.6105   -0.7070    2.0748 H   0  0  0  0  0  0  0  0  0  0  0  0
    3.2877    1.3140    0.8419 H   0  0  0  0  0  0  0  0  0  0  0  0
    1.6330    2.5516   -0.4972 H   0  0  0  0  0  0  0  0  0  0  0  0
   -0.6988    1.7677   -0.6042 H   0  0  0  0  0  0  0  0  0  0  0  0
  1  2  1  0  0  0  0
  1 40  1  0  0  0  0
  1 41  1  0  0  0  0
  1 42  1  0  0  0  0
  2  3  1  0  0  0  0
  2 43  1  0  0  0  0
  2 44  1  0  0  0  0
  3  4  1  0  0  0  0
  3 45  1  0  0  0  0
  3 46  1  0  0  0  0
  4 10  1  0  0  0  0
  4  5  1  0  0  0  0
  4 32  1  0  0  0  0
  5 48  1  0  0  0  0
  5  6  1  0  0  0  0
  5 47  1  0  0  0  0
  6  7  1  0  0  0  0
  6 31  2  0  0  0  0
  7  8  1  0  0  0  0
  7 11  1  0  0  0  0
  7 64  1  0  0  0  0
  8  9  2  0  0  0  0
  8 10  1  0  0  0  0
 11 12  1  0  0  0  0
 11 13  1  0  0  0  0
 11 15  1  0  0  0  0
 13 14  1  0  0  0  0
 13 49  1  0  0  0  0
 13 50  1  0  0  0  0
 14 51  1  0  0  0  0
 14 52  1  0  0  0  0
 14 53  1  0  0  0  0
 15 20  2  0  0  0  0
 15 16  1  0  0  0  0
 16 17  2  0  0  0  0
 16 54  1  0  0  0  0
 17 18  1  0  0  0  0
 17 55  1  0  0  0  0
 18 19  2  0  0  0  0
 18 56  1  0  0  0  0
 19 20  1  0  0  0  0
 19 21  1  0  0  0  0
 20 57  1  0  0  0  0
 21 22  1  0  0  0  0
 21 58  1  0  0  0  0
 22 23  2  0  0  0  0
 22 24  2  0  0  0  0
 22 25  1  0  0  0  0
 25 29  1  0  0  0  0
 25 26  2  0  0  0  0
 26 27  1  0  0  0  0
 26 59  1  0  0  0  0
 27 28  1  0  0  0  0
 27 30  1  0  0  0  0
 28 29  2  0  0  0  0
 28 60  1  0  0  0  0
 30 61  1  0  0  0  0
 30 62  1  0  0  0  0
 30 63  1  0  0  0  0
 32 33  1  0  0  0  0
 32 65  1  0  0  0  0
 32 66  1  0  0  0  0
 33 34  1  0  0  0  0
 33 67  1  0  0  0  0
 33 68  1  0  0  0  0
 34 39  2  0  0  0  0
 34 35  1  0  0  0  0
 35 36  2  0  0  0  0
 35 69  1  0  0  0  0
 36 37  1  0  0  0  0
 36 70  1  0  0  0  0
 37 38  2  0  0  0  0
 37 71  1  0  0  0  0
 38 39  1  0  0  0  0
 38 72  1  0  0  0  0
 39 73  1  0  0  0  0
M  END
$$$$
