ZINC03815648
  -OEChem-08230709403D

 69 73  0     1  0  0  0  0  0999 V2000
   -5.2710    3.4396   -7.3641 C   0  0  0  0  0  0  0  0  0  0  0  0
   -4.7075    3.6770   -5.9616 C   0  0  0  0  0  0  0  0  0  0  0  0
   -5.3457    2.6902   -4.9818 C   0  0  1  0  0  0  0  0  0  0  0  0
   -6.4313    2.7582   -5.0530 H   0  0  0  0  0  0  0  0  0  0  0  0
   -4.9001    1.2679   -5.3276 C   0  0  0  0  0  0  0  0  0  0  0  0
   -5.6232    0.2858   -4.4424 C   0  0  0  0  0  0  0  0  0  0  0  0
   -5.1096   -0.0323   -3.1990 C   0  0  0  0  0  0  0  0  0  0  0  0
   -5.7754   -0.9295   -2.3851 C   0  0  0  0  0  0  0  0  0  0  0  0
   -6.9494   -1.5166   -2.8187 C   0  0  0  0  0  0  0  0  0  0  0  0
   -7.4603   -1.2024   -4.0642 C   0  0  0  0  0  0  0  0  0  0  0  0
   -6.7972   -0.3012   -4.8760 C   0  0  0  0  0  0  0  0  0  0  0  0
   -4.9124    3.0251   -3.5778 C   0  0  0  0  0  0  0  0  0  0  0  0
   -5.8419    3.3418   -2.6567 C   0  0  0  0  0  0  0  0  0  0  0  0
   -5.4440    3.6574   -1.3384 C   0  0  0  0  0  0  0  0  0  0  0  0
   -4.0967    3.6321   -1.0271 C   0  0  0  0  0  0  0  0  0  0  0  0
   -3.1776    3.3007   -2.0303 C   0  0  0  0  0  0  0  0  0  0  0  0
   -1.9839    3.2776   -1.7788 O   0  0  0  0  0  0  0  0  0  0  0  0
   -3.6080    3.0027   -3.2682 O   0  0  0  0  0  0  0  0  0  0  0  0
   -3.6254    3.9615    0.3659 C   0  0  2  0  0  0  0  0  0  0  0  0
   -3.4712    5.0371    0.4524 H   0  0  0  0  0  0  0  0  0  0  0  0
   -2.3286    3.2444    0.6402 C   0  0  0  0  0  0  0  0  0  0  0  0
   -2.3009    1.8626    0.6915 C   0  0  0  0  0  0  0  0  0  0  0  0
   -1.1144    1.2009    0.9486 C   0  0  0  0  0  0  0  0  0  0  0  0
    0.0499    1.9181    1.1437 C   0  0  0  0  0  0  0  0  0  0  0  0
    0.0267    3.3056    1.0871 C   0  0  0  0  0  0  0  0  0  0  0  0
   -1.1684    3.9675    0.8343 C   0  0  0  0  0  0  0  0  0  0  0  0
    1.2022    4.0339    1.2835 N   0  0  0  0  0  0  0  0  0  0  0  0
    2.6024    3.5637    0.5347 S   0  0  0  0  0  0  0  0  0  0  0  0
    3.5982    4.5069    0.9063 O   0  0  0  0  0  0  0  0  0  0  0  0
    2.7444    2.1707    0.7768 O   0  0  0  0  0  0  0  0  0  0  0  0
    2.3538    3.7507   -1.1996 C   0  0  0  0  0  0  0  0  0  0  0  0
    1.8512    2.6990   -1.9429 C   0  0  0  0  0  0  0  0  0  0  0  0
    1.6507    2.8470   -3.3024 C   0  0  0  0  0  0  0  0  0  0  0  0
    1.9638    4.0441   -3.9213 C   0  0  0  0  0  0  0  0  0  0  0  0
    2.4720    5.0944   -3.1779 C   0  0  0  0  0  0  0  0  0  0  0  0
    2.6668    4.9471   -1.8175 C   0  0  0  0  0  0  0  0  0  0  0  0
    1.7183    4.2285   -5.6300 Cl  0  0  0  0  0  0  0  0  0  0  0  0
   -4.6799    3.5143    1.3801 C   0  0  0  0  0  0  0  0  0  0  0  0
   -5.4407    4.6055    2.1360 C   0  0  0  0  0  0  0  0  0  0  0  0
   -4.3869    3.7645    2.8608 C   0  0  0  0  0  0  0  0  0  0  0  0
   -6.3636    3.9789   -0.3982 O   0  0  0  0  0  0  0  0  0  0  0  0
   -4.7646    4.0930   -8.0745 H   0  0  0  0  0  0  0  0  0  0  0  0
   -5.1107    2.3997   -7.6489 H   0  0  0  0  0  0  0  0  0  0  0  0
   -6.3391    3.6569   -7.3681 H   0  0  0  0  0  0  0  0  0  0  0  0
   -4.9314    4.6966   -5.6478 H   0  0  0  0  0  0  0  0  0  0  0  0
   -3.6276    3.5294   -5.9741 H   0  0  0  0  0  0  0  0  0  0  0  0
   -5.1343    1.0574   -6.3711 H   0  0  0  0  0  0  0  0  0  0  0  0
   -3.8254    1.1756   -5.1706 H   0  0  0  0  0  0  0  0  0  0  0  0
   -4.1900    0.4230   -2.8621 H   0  0  0  0  0  0  0  0  0  0  0  0
   -5.3761   -1.1753   -1.4122 H   0  0  0  0  0  0  0  0  0  0  0  0
   -7.4673   -2.2210   -2.1846 H   0  0  0  0  0  0  0  0  0  0  0  0
   -8.3773   -1.6614   -4.4032 H   0  0  0  0  0  0  0  0  0  0  0  0
   -7.1962   -0.0561   -5.8492 H   0  0  0  0  0  0  0  0  0  0  0  0
   -6.8880    3.3542   -2.9246 H   0  0  0  0  0  0  0  0  0  0  0  0
   -3.2089    1.2992    0.5346 H   0  0  0  0  0  0  0  0  0  0  0  0
   -1.0970    0.1219    0.9924 H   0  0  0  0  0  0  0  0  0  0  0  0
    0.9773    1.4004    1.3397 H   0  0  0  0  0  0  0  0  0  0  0  0
   -1.1898    5.0464    0.7893 H   0  0  0  0  0  0  0  0  0  0  0  0
    1.1984    4.8151    1.8585 H   0  0  0  0  0  0  0  0  0  0  0  0
    1.6111    1.7631   -1.4604 H   0  0  0  0  0  0  0  0  0  0  0  0
    1.2540    2.0267   -3.8823 H   0  0  0  0  0  0  0  0  0  0  0  0
    2.7162    6.0292   -3.6604 H   0  0  0  0  0  0  0  0  0  0  0  0
    3.0632    5.7670   -1.2369 H   0  0  0  0  0  0  0  0  0  0  0  0
   -5.2260    2.6071    1.1215 H   0  0  0  0  0  0  0  0  0  0  0  0
   -5.1899    5.6421    1.9107 H   0  0  0  0  0  0  0  0  0  0  0  0
   -6.4872    4.4161    2.3750 H   0  0  0  0  0  0  0  0  0  0  0  0
   -4.7405    3.0222    3.5763 H   0  0  0  0  0  0  0  0  0  0  0  0
   -3.4426    4.2474    3.1124 H   0  0  0  0  0  0  0  0  0  0  0  0
   -6.5628    4.9239   -0.3498 H   0  0  0  0  0  0  0  0  0  0  0  0
  1  2  1  0  0  0  0
  1 42  1  0  0  0  0
  1 43  1  0  0  0  0
  1 44  1  0  0  0  0
  2  3  1  0  0  0  0
  2 45  1  0  0  0  0
  2 46  1  0  0  0  0
  3  4  1  0  0  0  0
  3  5  1  0  0  0  0
  3 12  1  0  0  0  0
  5  6  1  0  0  0  0
  5 47  1  0  0  0  0
  5 48  1  0  0  0  0
  6 11  2  0  0  0  0
  6  7  1  0  0  0  0
  7  8  2  0  0  0  0
  7 49  1  0  0  0  0
  8  9  1  0  0  0  0
  8 50  1  0  0  0  0
  9 10  2  0  0  0  0
  9 51  1  0  0  0  0
 10 11  1  0  0  0  0
 10 52  1  0  0  0  0
 11 53  1  0  0  0  0
 12 18  1  0  0  0  0
 12 13  2  0  0  0  0
 13 14  1  0  0  0  0
 13 54  1  0  0  0  0
 14 15  2  0  0  0  0
 14 41  1  0  0  0  0
 15 16  1  0  0  0  0
 15 19  1  0  0  0  0
 16 17  2  0  0  0  0
 16 18  1  0  0  0  0
 19 20  1  0  0  0  0
 19 21  1  0  0  0  0
 19 38  1  0  0  0  0
 21 26  2  0  0  0  0
 21 22  1  0  0  0  0
 22 23  2  0  0  0  0
 22 55  1  0  0  0  0
 23 24  1  0  0  0  0
 23 56  1  0  0  0  0
 24 25  2  0  0  0  0
 24 57  1  0  0  0  0
 25 26  1  0  0  0  0
 25 27  1  0  0  0  0
 26 58  1  0  0  0  0
 27 28  1  0  0  0  0
 27 59  1  0  0  0  0
 28 29  2  0  0  0  0
 28 30  2  0  0  0  0
 28 31  1  0  0  0  0
 31 36  2  0  0  0  0
 31 32  1  0  0  0  0
 32 33  2  0  0  0  0
 32 60  1  0  0  0  0
 33 34  1  0  0  0  0
 33 61  1  0  0  0  0
 34 35  2  0  0  0  0
 34 37  1  0  0  0  0
 35 36  1  0  0  0  0
 35 62  1  0  0  0  0
 36 63  1  0  0  0  0
 38 40  1  0  0  0  0
 38 39  1  0  0  0  0
 38 64  1  0  0  0  0
 39 40  1  0  0  0  0
 39 65  1  0  0  0  0
 39 66  1  0  0  0  0
 40 67  1  0  0  0  0
 40 68  1  0  0  0  0
 41 69  1  0  0  0  0
M  END
$$$$
