ZINC03815649
  -OEChem-08230709403D

 70 75  0     1  0  0  0  0  0999 V2000
    1.1191    3.1622   -0.4325 C   0  0  0  0  0  0  0  0  0  0  0  0
   -0.0997    3.8155   -0.4024 C   0  0  0  0  0  0  0  0  0  0  0  0
   -1.2344    3.1491    0.0221 C   0  0  0  0  0  0  0  0  0  0  0  0
   -1.1521    1.8316    0.4284 C   0  0  0  0  0  0  0  0  0  0  0  0
    0.0712    1.1743    0.4048 C   0  0  0  0  0  0  0  0  0  0  0  0
    1.2084    1.8451   -0.0276 C   0  0  0  0  0  0  0  0  0  0  0  0
    0.1581   -0.1579    0.8155 N   0  0  0  0  0  0  0  0  0  0  0  0
    1.3868   -0.6372    1.8168 S   0  0  0  0  0  0  0  0  0  0  0  0
    1.1873   -2.0210    2.0708 O   0  0  0  0  0  0  0  0  0  0  0  0
    2.5898   -0.1317    1.2542 O   0  0  0  0  0  0  0  0  0  0  0  0
    1.1611    0.1945    3.3536 C   0  0  0  0  0  0  0  0  0  0  0  0
    1.7516    1.4264    3.5655 C   0  0  0  0  0  0  0  0  0  0  0  0
    1.5713    2.0819    4.7687 C   0  0  0  0  0  0  0  0  0  0  0  0
    0.8075    1.4996    5.7660 C   0  0  0  0  0  0  0  0  0  0  0  0
    0.2209    0.2634    5.5546 C   0  0  0  0  0  0  0  0  0  0  0  0
    0.3983   -0.3878    4.3486 C   0  0  0  0  0  0  0  0  0  0  0  0
    0.6344    2.1374    6.9444 F   0  0  0  0  0  0  0  0  0  0  0  0
   -2.5613    3.8631    0.0473 C   0  0  1  0  0  0  0  0  0  0  0  0
   -2.3950    4.9356    0.1481 H   0  0  0  0  0  0  0  0  0  0  0  0
   -3.3040    3.5883   -1.2349 C   0  0  0  0  0  0  0  0  0  0  0  0
   -3.5650    4.6102   -2.1295 C   0  0  0  0  0  0  0  0  0  0  0  0
   -4.2598    4.3072   -3.3218 C   0  0  0  0  0  0  0  0  0  0  0  0
   -4.6601    3.0439   -3.5597 C   0  0  0  0  0  0  0  0  0  0  0  0
   -4.4080    2.0597   -2.6847 O   0  0  0  0  0  0  0  0  0  0  0  0
   -3.7468    2.2950   -1.5384 C   0  0  0  0  0  0  0  0  0  0  0  0
   -3.5316    1.3797   -0.7609 O   0  0  0  0  0  0  0  0  0  0  0  0
   -5.4051    2.7306   -4.8317 C   0  0  0  0  0  0  0  0  0  0  0  0
   -4.6195    1.6972   -5.6415 C   0  0  0  0  0  0  0  0  0  0  0  0
   -5.3107    1.4717   -6.9877 C   0  0  0  0  0  0  0  0  0  0  0  0
   -5.8710    0.0761   -7.2692 C   0  0  0  0  0  0  0  0  0  0  0  0
   -4.6128    0.5561   -7.9955 C   0  0  0  0  0  0  0  0  0  0  0  0
   -6.7857    2.1674   -4.4886 C   0  0  0  0  0  0  0  0  0  0  0  0
   -7.6162    3.2445   -3.7879 C   0  0  0  0  0  0  0  0  0  0  0  0
   -8.0400    2.9804   -2.3416 C   0  0  0  0  0  0  0  0  0  0  0  0
   -9.0750    2.9140   -3.4664 C   0  0  0  0  0  0  0  0  0  0  0  0
   -3.1589    5.8753   -1.8699 O   0  0  0  0  0  0  0  0  0  0  0  0
   -3.3879    3.3615    1.2330 C   0  0  0  0  0  0  0  0  0  0  0  0
   -3.9822    4.4111    2.1743 C   0  0  0  0  0  0  0  0  0  0  0  0
   -2.8018    3.5515    2.6335 C   0  0  0  0  0  0  0  0  0  0  0  0
    2.0027    3.6843   -0.7688 H   0  0  0  0  0  0  0  0  0  0  0  0
   -0.1659    4.8471   -0.7150 H   0  0  0  0  0  0  0  0  0  0  0  0
   -2.0380    1.3131    0.7643 H   0  0  0  0  0  0  0  0  0  0  0  0
    2.1612    1.3371   -0.0468 H   0  0  0  0  0  0  0  0  0  0  0  0
   -0.5014   -0.8022    0.5141 H   0  0  0  0  0  0  0  0  0  0  0  0
    2.3508    1.8785    2.7889 H   0  0  0  0  0  0  0  0  0  0  0  0
    2.0294    3.0462    4.9325 H   0  0  0  0  0  0  0  0  0  0  0  0
   -0.3754   -0.1916    6.3316 H   0  0  0  0  0  0  0  0  0  0  0  0
   -0.0595   -1.3520    4.1834 H   0  0  0  0  0  0  0  0  0  0  0  0
   -4.4726    5.0869   -4.0381 H   0  0  0  0  0  0  0  0  0  0  0  0
   -5.5201    3.6415   -5.4191 H   0  0  0  0  0  0  0  0  0  0  0  0
   -3.6061    2.0616   -5.8099 H   0  0  0  0  0  0  0  0  0  0  0  0
   -4.5809    0.7572   -5.0909 H   0  0  0  0  0  0  0  0  0  0  0  0
   -5.8631    2.3250   -7.3813 H   0  0  0  0  0  0  0  0  0  0  0  0
   -5.7472   -0.6814   -6.4953 H   0  0  0  0  0  0  0  0  0  0  0  0
   -6.7923    0.0110   -7.8480 H   0  0  0  0  0  0  0  0  0  0  0  0
   -4.7064    0.8068   -9.0522 H   0  0  0  0  0  0  0  0  0  0  0  0
   -3.6613    0.1144   -7.6994 H   0  0  0  0  0  0  0  0  0  0  0  0
   -7.2898    1.8583   -5.4042 H   0  0  0  0  0  0  0  0  0  0  0  0
   -6.6734    1.3079   -3.8277 H   0  0  0  0  0  0  0  0  0  0  0  0
   -7.3822    4.2726   -4.0643 H   0  0  0  0  0  0  0  0  0  0  0  0
   -7.7271    2.0393   -1.8894 H   0  0  0  0  0  0  0  0  0  0  0  0
   -8.0847    3.8348   -1.6663 H   0  0  0  0  0  0  0  0  0  0  0  0
   -9.8008    3.7247   -3.5310 H   0  0  0  0  0  0  0  0  0  0  0  0
   -9.4432    1.9292   -3.7542 H   0  0  0  0  0  0  0  0  0  0  0  0
   -2.2747    6.0808   -2.2032 H   0  0  0  0  0  0  0  0  0  0  0  0
   -3.9732    2.4603    1.0504 H   0  0  0  0  0  0  0  0  0  0  0  0
   -3.7843    5.4590    1.9488 H   0  0  0  0  0  0  0  0  0  0  0  0
   -4.9583    4.2002    2.6112 H   0  0  0  0  0  0  0  0  0  0  0  0
   -3.0018    2.7755    3.3723 H   0  0  0  0  0  0  0  0  0  0  0  0
   -1.8272    4.0335    2.7101 H   0  0  0  0  0  0  0  0  0  0  0  0
  1  6  2  0  0  0  0
  1  2  1  0  0  0  0
  1 40  1  0  0  0  0
  2  3  2  0  0  0  0
  2 41  1  0  0  0  0
  3  4  1  0  0  0  0
  3 18  1  0  0  0  0
  4  5  2  0  0  0  0
  4 42  1  0  0  0  0
  5  6  1  0  0  0  0
  5  7  1  0  0  0  0
  6 43  1  0  0  0  0
  7  8  1  0  0  0  0
  7 44  1  0  0  0  0
  8  9  2  0  0  0  0
  8 10  2  0  0  0  0
  8 11  1  0  0  0  0
 11 16  2  0  0  0  0
 11 12  1  0  0  0  0
 12 13  2  0  0  0  0
 12 45  1  0  0  0  0
 13 14  1  0  0  0  0
 13 46  1  0  0  0  0
 14 15  2  0  0  0  0
 14 17  1  0  0  0  0
 15 16  1  0  0  0  0
 15 47  1  0  0  0  0
 16 48  1  0  0  0  0
 18 19  1  0  0  0  0
 18 20  1  0  0  0  0
 18 37  1  0  0  0  0
 20 25  1  0  0  0  0
 20 21  2  0  0  0  0
 21 22  1  0  0  0  0
 21 36  1  0  0  0  0
 22 23  2  0  0  0  0
 22 49  1  0  0  0  0
 23 24  1  0  0  0  0
 23 27  1  0  0  0  0
 24 25  1  0  0  0  0
 25 26  2  0  0  0  0
 27 28  1  0  0  0  0
 27 32  1  0  0  0  0
 27 50  1  0  0  0  0
 28 29  1  0  0  0  0
 28 51  1  0  0  0  0
 28 52  1  0  0  0  0
 29 31  1  0  0  0  0
 29 30  1  0  0  0  0
 29 53  1  0  0  0  0
 30 31  1  0  0  0  0
 30 54  1  0  0  0  0
 30 55  1  0  0  0  0
 31 56  1  0  0  0  0
 31 57  1  0  0  0  0
 32 33  1  0  0  0  0
 32 58  1  0  0  0  0
 32 59  1  0  0  0  0
 33 35  1  0  0  0  0
 33 34  1  0  0  0  0
 33 60  1  0  0  0  0
 34 35  1  0  0  0  0
 34 61  1  0  0  0  0
 34 62  1  0  0  0  0
 35 63  1  0  0  0  0
 35 64  1  0  0  0  0
 36 65  1  0  0  0  0
 37 39  1  0  0  0  0
 37 38  1  0  0  0  0
 37 66  1  0  0  0  0
 38 39  1  0  0  0  0
 38 67  1  0  0  0  0
 38 68  1  0  0  0  0
 39 69  1  0  0  0  0
 39 70  1  0  0  0  0
M  END
$$$$
