ZINC03815637
  -OEChem-08230709403D

 69 73  0     1  0  0  0  0  0999 V2000
    1.0241   -4.4425   -5.4781 C   0  0  0  0  0  0  0  0  0  0  0  0
    0.4745   -3.0167   -5.5558 C   0  0  0  0  0  0  0  0  0  0  0  0
   -0.9412   -3.0467   -6.1352 C   0  0  1  0  0  0  0  0  0  0  0  0
   -0.9342   -3.5833   -7.0840 H   0  0  0  0  0  0  0  0  0  0  0  0
   -1.8784   -3.7555   -5.1554 C   0  0  0  0  0  0  0  0  0  0  0  0
   -3.2440   -3.8944   -5.7775 C   0  0  0  0  0  0  0  0  0  0  0  0
   -4.1644   -2.8697   -5.6601 C   0  0  0  0  0  0  0  0  0  0  0  0
   -5.4153   -2.9951   -6.2349 C   0  0  0  0  0  0  0  0  0  0  0  0
   -5.7494   -4.1493   -6.9182 C   0  0  0  0  0  0  0  0  0  0  0  0
   -4.8308   -5.1761   -7.0312 C   0  0  0  0  0  0  0  0  0  0  0  0
   -3.5781   -5.0486   -6.4609 C   0  0  0  0  0  0  0  0  0  0  0  0
   -1.4223   -1.6362   -6.3594 C   0  0  0  0  0  0  0  0  0  0  0  0
   -1.7577   -1.2416   -7.6021 C   0  0  0  0  0  0  0  0  0  0  0  0
   -2.2091    0.0791   -7.8209 C   0  0  0  0  0  0  0  0  0  0  0  0
   -2.2950    0.9391   -6.7412 C   0  0  0  0  0  0  0  0  0  0  0  0
   -1.9262    0.4715   -5.4738 C   0  0  0  0  0  0  0  0  0  0  0  0
   -1.9891    1.2149   -4.5085 O   0  0  0  0  0  0  0  0  0  0  0  0
   -1.5083   -0.7964   -5.3177 O   0  0  0  0  0  0  0  0  0  0  0  0
   -2.7712    2.3569   -6.9264 C   0  0  2  0  0  0  0  0  0  0  0  0
   -1.9236    2.9951   -7.1762 H   0  0  0  0  0  0  0  0  0  0  0  0
   -3.4077    2.8438   -5.6501 C   0  0  0  0  0  0  0  0  0  0  0  0
   -4.5726    2.2561   -5.1913 C   0  0  0  0  0  0  0  0  0  0  0  0
   -5.1597    2.6995   -4.0206 C   0  0  0  0  0  0  0  0  0  0  0  0
   -4.5843    3.7317   -3.3055 C   0  0  0  0  0  0  0  0  0  0  0  0
   -3.4145    4.3240   -3.7634 C   0  0  0  0  0  0  0  0  0  0  0  0
   -2.8299    3.8793   -4.9427 C   0  0  0  0  0  0  0  0  0  0  0  0
   -2.8303    5.3683   -3.0430 N   0  0  0  0  0  0  0  0  0  0  0  0
   -2.6787    5.2560   -1.3978 S   0  0  0  0  0  0  0  0  0  0  0  0
   -3.9479    4.8561   -0.8993 O   0  0  0  0  0  0  0  0  0  0  0  0
   -2.0316    6.4457   -0.9674 O   0  0  0  0  0  0  0  0  0  0  0  0
   -1.5668    3.9299   -1.0664 C   0  0  0  0  0  0  0  0  0  0  0  0
   -0.2291    4.0297   -0.9473 C   0  0  0  0  0  0  0  0  0  0  0  0
    0.2407    2.7698   -0.6910 N   0  0  0  0  0  0  0  0  0  0  0  0
   -0.8270    1.9435   -0.6623 C   0  0  0  0  0  0  0  0  0  0  0  0
   -1.9041    2.6434   -0.8925 N   0  0  0  0  0  0  0  0  0  0  0  0
    1.6404    2.3891   -0.4856 C   0  0  0  0  0  0  0  0  0  0  0  0
   -3.7981    2.4060   -8.0595 C   0  0  0  0  0  0  0  0  0  0  0  0
   -3.3910    3.1173   -9.3515 C   0  0  0  0  0  0  0  0  0  0  0  0
   -4.4035    3.7678   -8.4056 C   0  0  0  0  0  0  0  0  0  0  0  0
   -2.5506    0.4949   -9.0632 O   0  0  0  0  0  0  0  0  0  0  0  0
    2.0032   -4.4289   -4.9993 H   0  0  0  0  0  0  0  0  0  0  0  0
    0.3433   -5.0631   -4.8955 H   0  0  0  0  0  0  0  0  0  0  0  0
    1.1174   -4.8512   -6.4843 H   0  0  0  0  0  0  0  0  0  0  0  0
    1.1171   -2.4140   -6.1976 H   0  0  0  0  0  0  0  0  0  0  0  0
    0.4489   -2.5823   -4.5564 H   0  0  0  0  0  0  0  0  0  0  0  0
   -1.4822   -4.7443   -4.9244 H   0  0  0  0  0  0  0  0  0  0  0  0
   -1.9547   -3.1713   -4.2383 H   0  0  0  0  0  0  0  0  0  0  0  0
   -3.9049   -1.9697   -5.1224 H   0  0  0  0  0  0  0  0  0  0  0  0
   -6.1331   -2.1930   -6.1464 H   0  0  0  0  0  0  0  0  0  0  0  0
   -6.7283   -4.2491   -7.3635 H   0  0  0  0  0  0  0  0  0  0  0  0
   -5.0920   -6.0781   -7.5647 H   0  0  0  0  0  0  0  0  0  0  0  0
   -2.8605   -5.8510   -6.5488 H   0  0  0  0  0  0  0  0  0  0  0  0
   -1.6822   -1.9324   -8.4289 H   0  0  0  0  0  0  0  0  0  0  0  0
   -5.0245    1.4489   -5.7485 H   0  0  0  0  0  0  0  0  0  0  0  0
   -6.0693    2.2384   -3.6651 H   0  0  0  0  0  0  0  0  0  0  0  0
   -5.0437    4.0780   -2.3915 H   0  0  0  0  0  0  0  0  0  0  0  0
   -1.9226    4.3407   -5.3038 H   0  0  0  0  0  0  0  0  0  0  0  0
   -2.5133    6.1594   -3.5064 H   0  0  0  0  0  0  0  0  0  0  0  0
    0.3598    4.9305   -1.0374 H   0  0  0  0  0  0  0  0  0  0  0  0
   -0.7944    0.8789   -0.4833 H   0  0  0  0  0  0  0  0  0  0  0  0
    2.0901    2.1278   -1.4435 H   0  0  0  0  0  0  0  0  0  0  0  0
    2.1835    3.2254   -0.0454 H   0  0  0  0  0  0  0  0  0  0  0  0
    1.6889    1.5311    0.1848 H   0  0  0  0  0  0  0  0  0  0  0  0
   -4.4426    1.5315   -8.1481 H   0  0  0  0  0  0  0  0  0  0  0  0
   -2.3915    3.5502   -9.3942 H   0  0  0  0  0  0  0  0  0  0  0  0
   -3.7680    2.7110  -10.2900 H   0  0  0  0  0  0  0  0  0  0  0  0
   -5.4463    3.7892   -8.7222 H   0  0  0  0  0  0  0  0  0  0  0  0
   -4.0706    4.6287   -7.8258 H   0  0  0  0  0  0  0  0  0  0  0  0
   -1.8177    0.8764   -9.5656 H   0  0  0  0  0  0  0  0  0  0  0  0
  1  2  1  0  0  0  0
  1 41  1  0  0  0  0
  1 42  1  0  0  0  0
  1 43  1  0  0  0  0
  2  3  1  0  0  0  0
  2 44  1  0  0  0  0
  2 45  1  0  0  0  0
  3  4  1  0  0  0  0
  3  5  1  0  0  0  0
  3 12  1  0  0  0  0
  5  6  1  0  0  0  0
  5 46  1  0  0  0  0
  5 47  1  0  0  0  0
  6 11  2  0  0  0  0
  6  7  1  0  0  0  0
  7  8  2  0  0  0  0
  7 48  1  0  0  0  0
  8  9  1  0  0  0  0
  8 49  1  0  0  0  0
  9 10  2  0  0  0  0
  9 50  1  0  0  0  0
 10 11  1  0  0  0  0
 10 51  1  0  0  0  0
 11 52  1  0  0  0  0
 12 18  1  0  0  0  0
 12 13  2  0  0  0  0
 13 14  1  0  0  0  0
 13 53  1  0  0  0  0
 14 15  2  0  0  0  0
 14 40  1  0  0  0  0
 15 16  1  0  0  0  0
 15 19  1  0  0  0  0
 16 17  2  0  0  0  0
 16 18  1  0  0  0  0
 19 20  1  0  0  0  0
 19 21  1  0  0  0  0
 19 37  1  0  0  0  0
 21 26  2  0  0  0  0
 21 22  1  0  0  0  0
 22 23  2  0  0  0  0
 22 54  1  0  0  0  0
 23 24  1  0  0  0  0
 23 55  1  0  0  0  0
 24 25  2  0  0  0  0
 24 56  1  0  0  0  0
 25 26  1  0  0  0  0
 25 27  1  0  0  0  0
 26 57  1  0  0  0  0
 27 28  1  0  0  0  0
 27 58  1  0  0  0  0
 28 29  2  0  0  0  0
 28 30  2  0  0  0  0
 28 31  1  0  0  0  0
 31 35  1  0  0  0  0
 31 32  2  0  0  0  0
 32 33  1  0  0  0  0
 32 59  1  0  0  0  0
 33 34  1  0  0  0  0
 33 36  1  0  0  0  0
 34 35  2  0  0  0  0
 34 60  1  0  0  0  0
 36 61  1  0  0  0  0
 36 62  1  0  0  0  0
 36 63  1  0  0  0  0
 37 39  1  0  0  0  0
 37 38  1  0  0  0  0
 37 64  1  0  0  0  0
 38 39  1  0  0  0  0
 38 65  1  0  0  0  0
 38 66  1  0  0  0  0
 39 67  1  0  0  0  0
 39 68  1  0  0  0  0
 40 69  1  0  0  0  0
M  END
$$$$
