ZINC00245648
  -OEChem-08230709403D

 40 43  0     0  0  0  0  0  0999 V2000
   -3.2889   -2.1267    2.1629 C   0  0  0  0  0  0  0  0  0  0  0  0
   -4.0736   -1.7013    0.9487 C   0  0  0  0  0  0  0  0  0  0  0  0
   -3.6569   -0.8277   -0.0105 C   0  0  0  0  0  0  0  0  0  0  0  0
   -4.7014   -0.7095   -0.9618 C   0  0  0  0  0  0  0  0  0  0  0  0
   -5.6866   -1.4915   -0.5773 N   0  0  0  0  0  0  0  0  0  0  0  0
   -5.3137   -2.1176    0.6181 N   0  0  0  0  0  0  0  0  0  0  0  0
   -5.8718   -2.7638    1.1386 H   0  0  0  0  0  0  0  0  0  0  0  0
   -4.6844    0.1408   -2.1760 C   0  0  0  0  0  0  0  0  0  0  0  0
   -3.5737    0.1353   -3.0177 C   0  0  0  0  0  0  0  0  0  0  0  0
   -3.5629    0.9230   -4.1496 C   0  0  0  0  0  0  0  0  0  0  0  0
   -4.6520    1.7316   -4.4481 C   0  0  0  0  0  0  0  0  0  0  0  0
   -5.7589    1.7473   -3.6126 C   0  0  0  0  0  0  0  0  0  0  0  0
   -5.7808    0.9554   -2.4771 C   0  0  0  0  0  0  0  0  0  0  0  0
   -6.8641    0.9699   -1.6575 O   0  0  0  0  0  0  0  0  0  0  0  0
   -4.6328    2.5100   -5.5617 O   0  0  0  0  0  0  0  0  0  0  0  0
   -2.3512   -0.1238   -0.0488 C   0  0  0  0  0  0  0  0  0  0  0  0
   -2.2992    1.2602    0.1049 C   0  0  0  0  0  0  0  0  0  0  0  0
   -1.0846    1.9134    0.0637 C   0  0  0  0  0  0  0  0  0  0  0  0
    0.0890    1.1959   -0.1221 C   0  0  0  0  0  0  0  0  0  0  0  0
    0.0430   -0.1859   -0.2733 C   0  0  0  0  0  0  0  0  0  0  0  0
   -1.1748   -0.8450   -0.2381 C   0  0  0  0  0  0  0  0  0  0  0  0
    1.1843   -0.9050   -0.4562 O   0  0  0  0  0  0  0  0  0  0  0  0
    2.3472   -0.1746   -0.8609 C   0  0  0  0  0  0  0  0  0  0  0  0
    2.4601    1.0755    0.0223 C   0  0  0  0  0  0  0  0  0  0  0  0
    1.2767    1.8607   -0.1595 O   0  0  0  0  0  0  0  0  0  0  0  0
   -3.5037   -1.4499    2.9899 H   0  0  0  0  0  0  0  0  0  0  0  0
   -3.5720   -3.1418    2.4411 H   0  0  0  0  0  0  0  0  0  0  0  0
   -2.2232   -2.0961    1.9358 H   0  0  0  0  0  0  0  0  0  0  0  0
   -2.7235   -0.4891   -2.7859 H   0  0  0  0  0  0  0  0  0  0  0  0
   -2.7033    0.9144   -4.8035 H   0  0  0  0  0  0  0  0  0  0  0  0
   -6.6039    2.3776   -3.8476 H   0  0  0  0  0  0  0  0  0  0  0  0
   -6.8166    1.6323   -0.9545 H   0  0  0  0  0  0  0  0  0  0  0  0
   -4.2661    3.3932   -5.4179 H   0  0  0  0  0  0  0  0  0  0  0  0
   -3.2098    1.8218    0.2527 H   0  0  0  0  0  0  0  0  0  0  0  0
   -1.0462    2.9861    0.1830 H   0  0  0  0  0  0  0  0  0  0  0  0
   -1.2121   -1.9177   -0.3576 H   0  0  0  0  0  0  0  0  0  0  0  0
    3.2340   -0.7956   -0.7342 H   0  0  0  0  0  0  0  0  0  0  0  0
    2.2511    0.1202   -1.9059 H   0  0  0  0  0  0  0  0  0  0  0  0
    2.5489    0.7801    1.0677 H   0  0  0  0  0  0  0  0  0  0  0  0
    3.3348    1.6556   -0.2719 H   0  0  0  0  0  0  0  0  0  0  0  0
  1  2  1  0  0  0  0
  1 26  1  0  0  0  0
  1 27  1  0  0  0  0
  1 28  1  0  0  0  0
  2  6  1  0  0  0  0
  2  3  2  0  0  0  0
  3  4  1  0  0  0  0
  3 16  1  0  0  0  0
  4  5  2  0  0  0  0
  4  8  1  0  0  0  0
  5  6  1  0  0  0  0
  6  7  1  0  0  0  0
  8 13  2  0  0  0  0
  8  9  1  0  0  0  0
  9 10  2  0  0  0  0
  9 29  1  0  0  0  0
 10 11  1  0  0  0  0
 10 30  1  0  0  0  0
 11 12  2  0  0  0  0
 11 15  1  0  0  0  0
 12 13  1  0  0  0  0
 12 31  1  0  0  0  0
 13 14  1  0  0  0  0
 14 32  1  0  0  0  0
 15 33  1  0  0  0  0
 16 21  2  0  0  0  0
 16 17  1  0  0  0  0
 17 18  2  0  0  0  0
 17 34  1  0  0  0  0
 18 19  1  0  0  0  0
 18 35  1  0  0  0  0
 19 25  1  0  0  0  0
 19 20  2  0  0  0  0
 20 21  1  0  0  0  0
 20 22  1  0  0  0  0
 21 36  1  0  0  0  0
 22 23  1  0  0  0  0
 23 24  1  0  0  0  0
 23 37  1  0  0  0  0
 23 38  1  0  0  0  0
 24 25  1  0  0  0  0
 24 39  1  0  0  0  0
 24 40  1  0  0  0  0
M  END
$$$$
