ZINC03832017
  -OEChem-08230709403D

 43 46  0     0  0  0  0  0  0999 V2000
   -1.6972    1.5709   -3.3857 C   0  0  0  0  0  0  0  0  0  0  0  0
   -0.8394    1.0608   -2.2259 C   0  0  0  0  0  0  0  0  0  0  0  0
   -1.3902    1.6052   -0.9064 C   0  0  0  0  0  0  0  0  0  0  0  0
   -0.5325    1.0951    0.2534 C   0  0  0  0  0  0  0  0  0  0  0  0
   -0.9902    1.7050    1.5043 N   0  0  0  0  0  0  0  0  0  0  0  0
   -0.5849    2.9029    2.0132 C   0  0  0  0  0  0  0  0  0  0  0  0
   -1.1966    3.1381    3.1376 N   0  0  0  0  0  0  0  0  0  0  0  0
   -2.0234    2.1044    3.4260 C   0  0  0  0  0  0  0  0  0  0  0  0
   -1.9009    1.1724    2.3814 C   0  0  0  0  0  0  0  0  0  0  0  0
   -2.6173    0.0541    2.4264 N   0  0  0  0  0  0  0  0  0  0  0  0
   -3.4315   -0.1811    3.4337 C   0  0  0  0  0  0  0  0  0  0  0  0
   -3.5800    0.6641    4.4373 N   0  0  0  0  0  0  0  0  0  0  0  0
   -2.9053    1.8085    4.4790 C   0  0  0  0  0  0  0  0  0  0  0  0
   -3.0680    2.6882    5.5348 N   0  0  0  0  0  0  0  0  0  0  0  0
    0.4202    3.8212    1.3671 C   0  0  0  0  0  0  0  0  0  0  0  0
    1.7894    3.5451    1.9329 C   0  0  0  0  0  0  0  0  0  0  0  0
    2.6474    2.6845    1.2737 C   0  0  0  0  0  0  0  0  0  0  0  0
    3.9042    2.4278    1.7889 C   0  0  0  0  0  0  0  0  0  0  0  0
    4.3070    3.0329    2.9683 C   0  0  0  0  0  0  0  0  0  0  0  0
    3.4428    3.9001    3.6322 C   0  0  0  0  0  0  0  0  0  0  0  0
    2.1868    4.1572    3.1069 C   0  0  0  0  0  0  0  0  0  0  0  0
    4.0659    4.3618    4.7555 O   0  0  0  0  0  0  0  0  0  0  0  0
    5.4659    4.0891    4.5581 C   0  0  0  0  0  0  0  0  0  0  0  0
    5.4716    2.9513    3.6757 O   0  0  0  0  0  0  0  0  0  0  0  0
   -2.7249    1.2325   -3.2538 H   0  0  0  0  0  0  0  0  0  0  0  0
   -1.6729    2.6605   -3.4038 H   0  0  0  0  0  0  0  0  0  0  0  0
   -1.3048    1.1831   -4.3258 H   0  0  0  0  0  0  0  0  0  0  0  0
    0.1883    1.3993   -2.3578 H   0  0  0  0  0  0  0  0  0  0  0  0
   -0.8637   -0.0287   -2.2078 H   0  0  0  0  0  0  0  0  0  0  0  0
   -2.4179    1.2667   -0.7745 H   0  0  0  0  0  0  0  0  0  0  0  0
   -1.3660    2.6947   -0.9244 H   0  0  0  0  0  0  0  0  0  0  0  0
   -0.6233    0.0111    0.3231 H   0  0  0  0  0  0  0  0  0  0  0  0
    0.5099    1.3620    0.0792 H   0  0  0  0  0  0  0  0  0  0  0  0
   -3.9996   -1.0996    3.4394 H   0  0  0  0  0  0  0  0  0  0  0  0
   -4.0240    2.9777    5.5832 H   0  0  0  0  0  0  0  0  0  0  0  0
   -2.5699    3.5204    5.5539 H   0  0  0  0  0  0  0  0  0  0  0  0
    0.4303    3.6491    0.2908 H   0  0  0  0  0  0  0  0  0  0  0  0
    0.1467    4.8573    1.5669 H   0  0  0  0  0  0  0  0  0  0  0  0
    2.3350    2.2116    0.3544 H   0  0  0  0  0  0  0  0  0  0  0  0
    4.5723    1.7548    1.2720 H   0  0  0  0  0  0  0  0  0  0  0  0
    1.5162    4.8326    3.6173 H   0  0  0  0  0  0  0  0  0  0  0  0
    5.9594    4.9402    4.0889 H   0  0  0  0  0  0  0  0  0  0  0  0
    5.9451    3.8416    5.5053 H   0  0  0  0  0  0  0  0  0  0  0  0
  1  2  1  0  0  0  0
  1 25  1  0  0  0  0
  1 26  1  0  0  0  0
  1 27  1  0  0  0  0
  2  3  1  0  0  0  0
  2 28  1  0  0  0  0
  2 29  1  0  0  0  0
  3  4  1  0  0  0  0
  3 30  1  0  0  0  0
  3 31  1  0  0  0  0
  4  5  1  0  0  0  0
  4 32  1  0  0  0  0
  4 33  1  0  0  0  0
  5  9  1  0  0  0  0
  5  6  1  0  0  0  0
  6  7  2  0  0  0  0
  6 15  1  0  0  0  0
  7  8  1  0  0  0  0
  8 13  2  0  0  0  0
  8  9  1  0  0  0  0
  9 10  2  0  0  0  0
 10 11  1  0  0  0  0
 11 12  2  0  0  0  0
 11 34  1  0  0  0  0
 12 13  1  0  0  0  0
 13 14  1  0  0  0  0
 14 35  1  0  0  0  0
 14 36  1  0  0  0  0
 15 16  1  0  0  0  0
 15 37  1  0  0  0  0
 15 38  1  0  0  0  0
 16 21  2  0  0  0  0
 16 17  1  0  0  0  0
 17 18  2  0  0  0  0
 17 39  1  0  0  0  0
 18 19  1  0  0  0  0
 18 40  1  0  0  0  0
 19 24  1  0  0  0  0
 19 20  2  0  0  0  0
 20 21  1  0  0  0  0
 20 22  1  0  0  0  0
 21 41  1  0  0  0  0
 22 23  1  0  0  0  0
 23 24  1  0  0  0  0
 23 42  1  0  0  0  0
 23 43  1  0  0  0  0
M  END
$$$$
