ZINC04617888
  -OEChem-08230709403D

 38 40  0     0  0  0  0  0  0999 V2000
    6.1448    1.0820   -0.4872 C   0  0  0  0  0  0  0  0  0  0  0  0
    4.6679    0.9307   -0.2284 C   0  0  0  0  0  0  0  0  0  0  0  0
    3.7629    1.9444   -0.1279 C   0  0  0  0  0  0  0  0  0  0  0  0
    2.4953    1.3607    0.1218 C   0  0  0  0  0  0  0  0  0  0  0  0
    2.6531    0.0554    0.1573 N   0  0  0  0  0  0  0  0  0  0  0  0
    4.0058   -0.2327   -0.0598 N   0  0  0  0  0  0  0  0  0  0  0  0
    4.4124   -1.1460   -0.0855 H   0  0  0  0  0  0  0  0  0  0  0  0
    1.2183    2.0911    0.3041 C   0  0  0  0  0  0  0  0  0  0  0  0
    1.1572    3.1891    1.1605 C   0  0  0  0  0  0  0  0  0  0  0  0
   -0.0329    3.8668    1.3286 C   0  0  0  0  0  0  0  0  0  0  0  0
   -1.1721    3.4574    0.6457 C   0  0  0  0  0  0  0  0  0  0  0  0
   -1.1176    2.3692   -0.2120 C   0  0  0  0  0  0  0  0  0  0  0  0
    0.0713    1.6802   -0.3824 C   0  0  0  0  0  0  0  0  0  0  0  0
    0.1248    0.6109   -1.2190 O   0  0  0  0  0  0  0  0  0  0  0  0
   -2.3416    4.1284    0.8154 O   0  0  0  0  0  0  0  0  0  0  0  0
   -0.1073    5.2345    2.3951 Cl  0  0  0  0  0  0  0  0  0  0  0  0
    4.0519    3.3944   -0.2532 C   0  0  0  0  0  0  0  0  0  0  0  0
    3.5456    4.1165   -1.3323 C   0  0  0  0  0  0  0  0  0  0  0  0
    3.8120    5.4654   -1.4435 C   0  0  0  0  0  0  0  0  0  0  0  0
    4.5919    6.1014   -0.4876 C   0  0  0  0  0  0  0  0  0  0  0  0
    5.1023    5.3837    0.5852 C   0  0  0  0  0  0  0  0  0  0  0  0
    4.8350    4.0357    0.7047 C   0  0  0  0  0  0  0  0  0  0  0  0
    4.8566    7.4296   -0.6024 O   0  0  0  0  0  0  0  0  0  0  0  0
    4.2999    8.1069   -1.7308 C   0  0  0  0  0  0  0  0  0  0  0  0
    6.3285    1.0703   -1.5615 H   0  0  0  0  0  0  0  0  0  0  0  0
    6.4919    2.0270   -0.0695 H   0  0  0  0  0  0  0  0  0  0  0  0
    6.6822    0.2580   -0.0177 H   0  0  0  0  0  0  0  0  0  0  0  0
    2.0411    3.5094    1.6920 H   0  0  0  0  0  0  0  0  0  0  0  0
   -2.0037    2.0566   -0.7444 H   0  0  0  0  0  0  0  0  0  0  0  0
   -0.0695   -0.2339   -0.7904 H   0  0  0  0  0  0  0  0  0  0  0  0
   -2.4704    4.8579    0.1938 H   0  0  0  0  0  0  0  0  0  0  0  0
    2.9418    3.6214   -2.0784 H   0  0  0  0  0  0  0  0  0  0  0  0
    3.4165    6.0264   -2.2773 H   0  0  0  0  0  0  0  0  0  0  0  0
    5.7092    5.8812    1.3273 H   0  0  0  0  0  0  0  0  0  0  0  0
    5.2325    3.4777    1.5397 H   0  0  0  0  0  0  0  0  0  0  0  0
    4.6748    7.6531   -2.6483 H   0  0  0  0  0  0  0  0  0  0  0  0
    3.2132    8.0261   -1.7033 H   0  0  0  0  0  0  0  0  0  0  0  0
    4.5870    9.1580   -1.7017 H   0  0  0  0  0  0  0  0  0  0  0  0
  1  2  1  0  0  0  0
  1 25  1  0  0  0  0
  1 26  1  0  0  0  0
  1 27  1  0  0  0  0
  2  6  1  0  0  0  0
  2  3  2  0  0  0  0
  3  4  1  0  0  0  0
  3 17  1  0  0  0  0
  4  5  2  0  0  0  0
  4  8  1  0  0  0  0
  5  6  1  0  0  0  0
  6  7  1  0  0  0  0
  8 13  2  0  0  0  0
  8  9  1  0  0  0  0
  9 10  2  0  0  0  0
  9 28  1  0  0  0  0
 10 11  1  0  0  0  0
 10 16  1  0  0  0  0
 11 12  2  0  0  0  0
 11 15  1  0  0  0  0
 12 13  1  0  0  0  0
 12 29  1  0  0  0  0
 13 14  1  0  0  0  0
 14 30  1  0  0  0  0
 15 31  1  0  0  0  0
 17 22  2  0  0  0  0
 17 18  1  0  0  0  0
 18 19  2  0  0  0  0
 18 32  1  0  0  0  0
 19 20  1  0  0  0  0
 19 33  1  0  0  0  0
 20 21  2  0  0  0  0
 20 23  1  0  0  0  0
 21 22  1  0  0  0  0
 21 34  1  0  0  0  0
 22 35  1  0  0  0  0
 23 24  1  0  0  0  0
 24 36  1  0  0  0  0
 24 37  1  0  0  0  0
 24 38  1  0  0  0  0
M  END
$$$$
