ZINC04617887
  -OEChem-08230709403D

 38 40  0     0  0  0  0  0  0999 V2000
    6.1448    1.0823   -0.4876 C   0  0  0  0  0  0  0  0  0  0  0  0
    4.6680    0.9310   -0.2284 C   0  0  0  0  0  0  0  0  0  0  0  0
    3.7630    1.9446   -0.1279 C   0  0  0  0  0  0  0  0  0  0  0  0
    2.4954    1.3608    0.1218 C   0  0  0  0  0  0  0  0  0  0  0  0
    2.6533    0.0555    0.1573 N   0  0  0  0  0  0  0  0  0  0  0  0
    4.0060   -0.2326   -0.0598 N   0  0  0  0  0  0  0  0  0  0  0  0
    4.4126   -1.1458   -0.0856 H   0  0  0  0  0  0  0  0  0  0  0  0
    1.2183    2.0911    0.3040 C   0  0  0  0  0  0  0  0  0  0  0  0
    1.1572    3.1890    1.1604 C   0  0  0  0  0  0  0  0  0  0  0  0
   -0.0328    3.8667    1.3285 C   0  0  0  0  0  0  0  0  0  0  0  0
   -1.1718    3.4577    0.6454 C   0  0  0  0  0  0  0  0  0  0  0  0
   -1.1175    2.3691   -0.2120 C   0  0  0  0  0  0  0  0  0  0  0  0
    0.0713    1.6802   -0.3825 C   0  0  0  0  0  0  0  0  0  0  0  0
    0.1248    0.6109   -1.2190 O   0  0  0  0  0  0  0  0  0  0  0  0
   -2.3411    4.1292    0.8146 O   0  0  0  0  0  0  0  0  0  0  0  0
   -0.1140    5.3561    2.4908 Br  0  0  0  0  0  0  0  0  0  0  0  0
    4.0519    3.3946   -0.2532 C   0  0  0  0  0  0  0  0  0  0  0  0
    3.5455    4.1167   -1.3322 C   0  0  0  0  0  0  0  0  0  0  0  0
    3.8119    5.4657   -1.4434 C   0  0  0  0  0  0  0  0  0  0  0  0
    4.5917    6.1016   -0.4874 C   0  0  0  0  0  0  0  0  0  0  0  0
    5.1022    5.3839    0.5853 C   0  0  0  0  0  0  0  0  0  0  0  0
    4.8350    4.0359    0.7048 C   0  0  0  0  0  0  0  0  0  0  0  0
    4.8564    7.4298   -0.6022 O   0  0  0  0  0  0  0  0  0  0  0  0
    4.2996    8.1071   -1.7306 C   0  0  0  0  0  0  0  0  0  0  0  0
    6.3282    1.0708   -1.5621 H   0  0  0  0  0  0  0  0  0  0  0  0
    6.4921    2.0272   -0.0699 H   0  0  0  0  0  0  0  0  0  0  0  0
    6.6824    0.2582   -0.0185 H   0  0  0  0  0  0  0  0  0  0  0  0
    2.0410    3.5094    1.6919 H   0  0  0  0  0  0  0  0  0  0  0  0
   -2.0037    2.0566   -0.7443 H   0  0  0  0  0  0  0  0  0  0  0  0
   -0.0695   -0.2339   -0.7904 H   0  0  0  0  0  0  0  0  0  0  0  0
   -2.4693    4.8586    0.1927 H   0  0  0  0  0  0  0  0  0  0  0  0
    2.9418    3.6217   -2.0783 H   0  0  0  0  0  0  0  0  0  0  0  0
    3.4163    6.0267   -2.2771 H   0  0  0  0  0  0  0  0  0  0  0  0
    5.7090    5.8814    1.3274 H   0  0  0  0  0  0  0  0  0  0  0  0
    5.2325    3.4779    1.5397 H   0  0  0  0  0  0  0  0  0  0  0  0
    4.6745    7.6534   -2.6480 H   0  0  0  0  0  0  0  0  0  0  0  0
    3.2129    8.0263   -1.7030 H   0  0  0  0  0  0  0  0  0  0  0  0
    4.5866    9.1582   -1.7014 H   0  0  0  0  0  0  0  0  0  0  0  0
  1  2  1  0  0  0  0
  1 25  1  0  0  0  0
  1 26  1  0  0  0  0
  1 27  1  0  0  0  0
  2  6  1  0  0  0  0
  2  3  2  0  0  0  0
  3  4  1  0  0  0  0
  3 17  1  0  0  0  0
  4  5  2  0  0  0  0
  4  8  1  0  0  0  0
  5  6  1  0  0  0  0
  6  7  1  0  0  0  0
  8 13  2  0  0  0  0
  8  9  1  0  0  0  0
  9 10  2  0  0  0  0
  9 28  1  0  0  0  0
 10 11  1  0  0  0  0
 10 16  1  0  0  0  0
 11 12  2  0  0  0  0
 11 15  1  0  0  0  0
 12 13  1  0  0  0  0
 12 29  1  0  0  0  0
 13 14  1  0  0  0  0
 14 30  1  0  0  0  0
 15 31  1  0  0  0  0
 17 22  2  0  0  0  0
 17 18  1  0  0  0  0
 18 19  2  0  0  0  0
 18 32  1  0  0  0  0
 19 20  1  0  0  0  0
 19 33  1  0  0  0  0
 20 21  2  0  0  0  0
 20 23  1  0  0  0  0
 21 22  1  0  0  0  0
 21 34  1  0  0  0  0
 22 35  1  0  0  0  0
 23 24  1  0  0  0  0
 24 36  1  0  0  0  0
 24 37  1  0  0  0  0
 24 38  1  0  0  0  0
M  END
$$$$
