ZINC01552694
  -OEChem-08230709403D

 51 53  0     0  0  0  0  0  0999 V2000
    1.2839   -0.6354   -0.0136 C   0  0  0  0  0  0  0  0  0  0  0  0
    0.0021   -0.0041    0.0020 O   0  0  0  0  0  0  0  0  0  0  0  0
   -0.0164    1.3560    0.0095 C   0  0  0  0  0  0  0  0  0  0  0  0
    1.1745    2.0663    0.0019 C   0  0  0  0  0  0  0  0  0  0  0  0
    1.1572    3.4484    0.0096 C   0  0  0  0  0  0  0  0  0  0  0  0
   -0.0473    4.1285    0.0248 C   0  0  0  0  0  0  0  0  0  0  0  0
   -1.2428    3.4247    0.0324 C   0  0  0  0  0  0  0  0  0  0  0  0
   -1.2288    2.0351    0.0189 C   0  0  0  0  0  0  0  0  0  0  0  0
   -2.3995    1.3411    0.0206 O   0  0  0  0  0  0  0  0  0  0  0  0
   -2.9515    1.0033    1.2947 C   0  0  0  0  0  0  0  0  0  0  0  0
   -2.4269    4.0938    0.0473 O   0  0  0  0  0  0  0  0  0  0  0  0
   -3.0039    4.4198   -1.2187 C   0  0  0  0  0  0  0  0  0  0  0  0
   -0.0629    5.8644    0.0349 Cl  0  0  0  0  0  0  0  0  0  0  0  0
    2.4539    4.2163    0.0008 C   0  0  0  0  0  0  0  0  0  0  0  0
    2.7465    4.6921   -1.3988 C   0  0  0  0  0  0  0  0  0  0  0  0
    2.3590    5.8300   -1.8970 N   0  0  0  0  0  0  0  0  0  0  0  0
    2.7943    5.9340   -3.1762 C   0  0  0  0  0  0  0  0  0  0  0  0
    2.6827    6.9103   -4.1810 C   0  0  0  0  0  0  0  0  0  0  0  0
    3.2512    6.6758   -5.3588 N   0  0  0  0  0  0  0  0  0  0  0  0
    3.9093    5.5516   -5.5896 C   0  0  0  0  0  0  0  0  0  0  0  0
    4.0394    4.6091   -4.6767 N   0  0  0  0  0  0  0  0  0  0  0  0
    3.5033    4.7574   -3.4691 C   0  0  0  0  0  0  0  0  0  0  0  0
    3.4614    3.9963   -2.3285 N   0  0  0  0  0  0  0  0  0  0  0  0
    4.0701    2.6765   -2.1442 C   0  0  0  0  0  0  0  0  0  0  0  0
    3.0681    1.5922   -2.5457 C   0  0  0  0  0  0  0  0  0  0  0  0
    3.7038    0.2139   -2.3532 C   0  0  0  0  0  0  0  0  0  0  0  0
    2.7398   -0.8293   -2.7395 C   0  0  0  0  0  0  0  0  0  0  0  0
    1.9710   -1.6613   -3.0477 C   0  0  0  0  0  0  0  0  0  0  0  0
    4.4689    5.3626   -6.8047 F   0  0  0  0  0  0  0  0  0  0  0  0
    1.9962    8.0892   -3.9490 N   0  0  0  0  0  0  0  0  0  0  0  0
    1.1558   -1.7179   -0.0182 H   0  0  0  0  0  0  0  0  0  0  0  0
    1.8284   -0.3302   -0.9072 H   0  0  0  0  0  0  0  0  0  0  0  0
    1.8454   -0.3398    0.8726 H   0  0  0  0  0  0  0  0  0  0  0  0
    2.1169    1.5388   -0.0096 H   0  0  0  0  0  0  0  0  0  0  0  0
   -3.8817    0.4530    1.1532 H   0  0  0  0  0  0  0  0  0  0  0  0
   -2.2431    0.3840    1.8450 H   0  0  0  0  0  0  0  0  0  0  0  0
   -3.1508    1.9151    1.8576 H   0  0  0  0  0  0  0  0  0  0  0  0
   -3.1921    3.5039   -1.7789 H   0  0  0  0  0  0  0  0  0  0  0  0
   -3.9433    4.9506   -1.0641 H   0  0  0  0  0  0  0  0  0  0  0  0
   -2.3164    5.0536   -1.7789 H   0  0  0  0  0  0  0  0  0  0  0  0
    2.3720    5.0753    0.6669 H   0  0  0  0  0  0  0  0  0  0  0  0
    3.2620    3.5687    0.3408 H   0  0  0  0  0  0  0  0  0  0  0  0
    4.9608    2.5970   -2.7674 H   0  0  0  0  0  0  0  0  0  0  0  0
    4.3460    2.5467   -1.0977 H   0  0  0  0  0  0  0  0  0  0  0  0
    2.1774    1.6718   -1.9225 H   0  0  0  0  0  0  0  0  0  0  0  0
    2.7922    1.7221   -3.5922 H   0  0  0  0  0  0  0  0  0  0  0  0
    4.5945    0.1343   -2.9764 H   0  0  0  0  0  0  0  0  0  0  0  0
    3.9798    0.0840   -1.3067 H   0  0  0  0  0  0  0  0  0  0  0  0
    1.2834   -2.4055   -3.3233 H   0  0  0  0  0  0  0  0  0  0  0  0
    1.0459    7.8814   -3.7171 H   0  0  0  0  0  0  0  0  0  0  0  0
    1.9259    8.7556   -4.6503 H   0  0  0  0  0  0  0  0  0  0  0  0
  1  2  1  0  0  0  0
  1 31  1  0  0  0  0
  1 32  1  0  0  0  0
  1 33  1  0  0  0  0
  2  3  1  0  0  0  0
  3  8  2  0  0  0  0
  3  4  1  0  0  0  0
  4  5  2  0  0  0  0
  4 34  1  0  0  0  0
  5  6  1  0  0  0  0
  5 14  1  0  0  0  0
  6  7  2  0  0  0  0
  6 13  1  0  0  0  0
  7  8  1  0  0  0  0
  7 11  1  0  0  0  0
  8  9  1  0  0  0  0
  9 10  1  0  0  0  0
 10 35  1  0  0  0  0
 10 36  1  0  0  0  0
 10 37  1  0  0  0  0
 11 12  1  0  0  0  0
 12 38  1  0  0  0  0
 12 39  1  0  0  0  0
 12 40  1  0  0  0  0
 14 15  1  0  0  0  0
 14 41  1  0  0  0  0
 14 42  1  0  0  0  0
 15 23  1  0  0  0  0
 15 16  2  0  0  0  0
 16 17  1  0  0  0  0
 17 22  2  0  0  0  0
 17 18  1  0  0  0  0
 18 19  2  0  0  0  0
 18 30  1  0  0  0  0
 19 20  1  0  0  0  0
 20 21  2  0  0  0  0
 20 29  1  0  0  0  0
 21 22  1  0  0  0  0
 22 23  1  0  0  0  0
 23 24  1  0  0  0  0
 24 25  1  0  0  0  0
 24 43  1  0  0  0  0
 24 44  1  0  0  0  0
 25 26  1  0  0  0  0
 25 45  1  0  0  0  0
 25 46  1  0  0  0  0
 26 27  1  0  0  0  0
 26 47  1  0  0  0  0
 26 48  1  0  0  0  0
 27 28  3  0  0  0  0
 28 49  1  0  0  0  0
 30 50  1  0  0  0  0
 30 51  1  0  0  0  0
M  END
$$$$
