ZINC03833895
  -OEChem-08230709403D

 43 46  0     0  0  0  0  0  0999 V2000
    4.0373   -3.0919   -2.7496 C   0  0  0  0  0  0  0  0  0  0  0  0
    5.0017   -2.0030   -2.2752 C   0  0  0  0  0  0  0  0  0  0  0  0
    4.3567   -0.6296   -2.4716 C   0  0  0  0  0  0  0  0  0  0  0  0
    5.3211    0.4593   -1.9971 C   0  0  0  0  0  0  0  0  0  0  0  0
    4.7536    1.7771   -2.2932 N   0  0  0  0  0  0  0  0  0  0  0  0
    4.0264    2.5529   -1.4394 C   0  0  0  0  0  0  0  0  0  0  0  0
    3.6853    3.6620   -2.0280 N   0  0  0  0  0  0  0  0  0  0  0  0
    4.1655    3.6662   -3.2954 C   0  0  0  0  0  0  0  0  0  0  0  0
    4.8532    2.4554   -3.4815 C   0  0  0  0  0  0  0  0  0  0  0  0
    5.4253    2.2108   -4.6562 N   0  0  0  0  0  0  0  0  0  0  0  0
    5.3505    3.0904   -5.6359 C   0  0  0  0  0  0  0  0  0  0  0  0
    4.7145    4.2429   -5.5064 N   0  0  0  0  0  0  0  0  0  0  0  0
    4.1123    4.5719   -4.3683 C   0  0  0  0  0  0  0  0  0  0  0  0
    3.4487    5.7797   -4.2425 N   0  0  0  0  0  0  0  0  0  0  0  0
    5.9454    2.8041   -6.8146 F   0  0  0  0  0  0  0  0  0  0  0  0
    3.6752    2.1830   -0.0213 C   0  0  0  0  0  0  0  0  0  0  0  0
    4.6842    2.7883    0.9203 C   0  0  0  0  0  0  0  0  0  0  0  0
    4.5268    4.0912    1.3553 C   0  0  0  0  0  0  0  0  0  0  0  0
    5.4502    4.6511    2.2183 C   0  0  0  0  0  0  0  0  0  0  0  0
    6.5361    3.9069    2.6500 C   0  0  0  0  0  0  0  0  0  0  0  0
    6.6944    2.5943    2.2121 C   0  0  0  0  0  0  0  0  0  0  0  0
    5.7650    2.0397    1.3472 C   0  0  0  0  0  0  0  0  0  0  0  0
    7.8313    2.0830    2.7682 O   0  0  0  0  0  0  0  0  0  0  0  0
    8.5797    3.2205    3.2316 C   0  0  0  0  0  0  0  0  0  0  0  0
    7.5708    4.2161    3.4848 O   0  0  0  0  0  0  0  0  0  0  0  0
    3.8130   -2.9435   -3.8059 H   0  0  0  0  0  0  0  0  0  0  0  0
    4.4968   -4.0703   -2.6097 H   0  0  0  0  0  0  0  0  0  0  0  0
    3.1150   -3.0376   -2.1712 H   0  0  0  0  0  0  0  0  0  0  0  0
    5.9240   -2.0573   -2.8535 H   0  0  0  0  0  0  0  0  0  0  0  0
    5.2260   -2.1514   -1.2188 H   0  0  0  0  0  0  0  0  0  0  0  0
    3.4344   -0.5752   -1.8932 H   0  0  0  0  0  0  0  0  0  0  0  0
    4.1324   -0.4812   -3.5279 H   0  0  0  0  0  0  0  0  0  0  0  0
    6.2748    0.3501   -2.5134 H   0  0  0  0  0  0  0  0  0  0  0  0
    5.4766    0.3639   -0.9225 H   0  0  0  0  0  0  0  0  0  0  0  0
    2.4863    5.6107   -4.0301 H   0  0  0  0  0  0  0  0  0  0  0  0
    3.4188    6.3968   -4.9903 H   0  0  0  0  0  0  0  0  0  0  0  0
    3.6849    1.0982    0.0842 H   0  0  0  0  0  0  0  0  0  0  0  0
    2.6818    2.5625    0.2177 H   0  0  0  0  0  0  0  0  0  0  0  0
    3.6809    4.6728    1.0198 H   0  0  0  0  0  0  0  0  0  0  0  0
    5.3248    5.6691    2.5565 H   0  0  0  0  0  0  0  0  0  0  0  0
    5.8852    1.0220    1.0060 H   0  0  0  0  0  0  0  0  0  0  0  0
    9.2688    3.5614    2.4589 H   0  0  0  0  0  0  0  0  0  0  0  0
    9.1206    2.9817    4.1473 H   0  0  0  0  0  0  0  0  0  0  0  0
  1  2  1  0  0  0  0
  1 26  1  0  0  0  0
  1 27  1  0  0  0  0
  1 28  1  0  0  0  0
  2  3  1  0  0  0  0
  2 29  1  0  0  0  0
  2 30  1  0  0  0  0
  3  4  1  0  0  0  0
  3 31  1  0  0  0  0
  3 32  1  0  0  0  0
  4  5  1  0  0  0  0
  4 33  1  0  0  0  0
  4 34  1  0  0  0  0
  5  9  1  0  0  0  0
  5  6  1  0  0  0  0
  6  7  2  0  0  0  0
  6 16  1  0  0  0  0
  7  8  1  0  0  0  0
  8 13  2  0  0  0  0
  8  9  1  0  0  0  0
  9 10  2  0  0  0  0
 10 11  1  0  0  0  0
 11 12  2  0  0  0  0
 11 15  1  0  0  0  0
 12 13  1  0  0  0  0
 13 14  1  0  0  0  0
 14 35  1  0  0  0  0
 14 36  1  0  0  0  0
 16 17  1  0  0  0  0
 16 37  1  0  0  0  0
 16 38  1  0  0  0  0
 17 22  2  0  0  0  0
 17 18  1  0  0  0  0
 18 19  2  0  0  0  0
 18 39  1  0  0  0  0
 19 20  1  0  0  0  0
 19 40  1  0  0  0  0
 20 25  1  0  0  0  0
 20 21  2  0  0  0  0
 21 22  1  0  0  0  0
 21 23  1  0  0  0  0
 22 41  1  0  0  0  0
 23 24  1  0  0  0  0
 24 25  1  0  0  0  0
 24 42  1  0  0  0  0
 24 43  1  0  0  0  0
M  END
$$$$
