ZINC03831927
  -OEChem-08230709403D

 63 66  0     0  0  0  0  0  0999 V2000
    2.1516    7.2364   -4.0817 C   0  0  0  0  0  0  0  0  0  0  0  0
    1.5610    7.3795   -2.8322 C   0  0  0  0  0  0  0  0  0  0  0  0
    1.7347    6.4206   -1.8598 C   0  0  0  0  0  0  0  0  0  0  0  0
    2.5089    5.2949   -2.1283 C   0  0  0  0  0  0  0  0  0  0  0  0
    3.1062    5.1519   -3.3960 C   0  0  0  0  0  0  0  0  0  0  0  0
    2.9145    6.1423   -4.3685 C   0  0  0  0  0  0  0  0  0  0  0  0
    3.8218    3.9308   -3.3803 C   0  0  0  0  0  0  0  0  0  0  0  0
    3.6617    3.3731   -2.1508 C   0  0  0  0  0  0  0  0  0  0  0  0
    2.8582    4.1941   -1.3826 N   0  0  0  0  0  0  0  0  0  0  0  0
    2.4508    3.9367    0.0008 C   0  0  0  0  0  0  0  0  0  0  0  0
    1.1561    3.1655    0.0081 C   0  0  0  0  0  0  0  0  0  0  0  0
    1.1748    1.7831    0.0004 C   0  0  0  0  0  0  0  0  0  0  0  0
   -0.0126    1.0758    0.0080 C   0  0  0  0  0  0  0  0  0  0  0  0
   -1.2192    1.7508    0.0173 C   0  0  0  0  0  0  0  0  0  0  0  0
   -1.2379    3.1327    0.0290 C   0  0  0  0  0  0  0  0  0  0  0  0
   -0.0501    3.8402    0.0228 C   0  0  0  0  0  0  0  0  0  0  0  0
   -2.5530    3.8684    0.0445 C   0  0  0  0  0  0  0  0  0  0  0  0
    4.2459    2.0992   -1.7106 C   0  0  0  0  0  0  0  0  0  0  0  0
    4.9410    1.4542   -2.4713 O   0  0  0  0  0  0  0  0  0  0  0  0
    4.0113    1.6454   -0.4627 O   0  0  0  0  0  0  0  0  0  0  0  0
    4.6207    0.3794   -0.0962 C   0  0  0  0  0  0  0  0  0  0  0  0
    4.2502    0.0359    1.3236 C   0  0  0  0  0  0  0  0  0  0  0  0
    5.0533    0.4545    2.3682 C   0  0  0  0  0  0  0  0  0  0  0  0
    4.7114    0.1428    3.6706 C   0  0  0  0  0  0  0  0  0  0  0  0
    3.5709   -0.5950    3.9282 C   0  0  0  0  0  0  0  0  0  0  0  0
    2.7706   -1.0175    2.8836 C   0  0  0  0  0  0  0  0  0  0  0  0
    3.1105   -0.7024    1.5810 C   0  0  0  0  0  0  0  0  0  0  0  0
    1.5277   -1.8222    3.1643 C   0  0  0  0  0  0  0  0  0  0  0  0
    2.0057    7.9986   -4.8328 H   0  0  0  0  0  0  0  0  0  0  0  0
    0.9601    8.2518   -2.6216 H   0  0  0  0  0  0  0  0  0  0  0  0
    1.2721    6.5413   -0.8914 H   0  0  0  0  0  0  0  0  0  0  0  0
    3.3693    6.0397   -5.3427 H   0  0  0  0  0  0  0  0  0  0  0  0
    4.3957    3.5182   -4.1969 H   0  0  0  0  0  0  0  0  0  0  0  0
    2.3121    4.8844    0.5211 H   0  0  0  0  0  0  0  0  0  0  0  0
    3.2229    3.3552    0.5048 H   0  0  0  0  0  0  0  0  0  0  0  0
    2.1173    1.2559   -0.0111 H   0  0  0  0  0  0  0  0  0  0  0  0
    0.0021   -0.0041    0.0020 H   0  0  0  0  0  0  0  0  0  0  0  0
   -2.1471    1.1981    0.0187 H   0  0  0  0  0  0  0  0  0  0  0  0
   -0.0647    4.9201    0.0291 H   0  0  0  0  0  0  0  0  0  0  0  0
   -2.8790    4.0516   -0.9794 H   0  0  0  0  0  0  0  0  0  0  0  0
   -3.2518    2.8187    1.6719 H   0  0  0  0  0  0  0  0  0  0  0  0
   -4.4515    3.5286    0.7649 H   0  0  0  0  0  0  0  0  0  0  0  0
   -2.0869    5.0072    1.6950 H   0  0  0  0  0  0  0  0  0  0  0  0
   -1.7490    5.7527    0.2473 H   0  0  0  0  0  0  0  0  0  0  0  0
    4.2624   -0.4033   -0.7647 H   0  0  0  0  0  0  0  0  0  0  0  0
    5.7045    0.4604   -0.1794 H   0  0  0  0  0  0  0  0  0  0  0  0
    5.9462    1.0277    2.1668 H   0  0  0  0  0  0  0  0  0  0  0  0
    5.3370    0.4727    4.4869 H   0  0  0  0  0  0  0  0  0  0  0  0
    3.3055   -0.8414    4.9457 H   0  0  0  0  0  0  0  0  0  0  0  0
    2.4853   -1.0329    0.7648 H   0  0  0  0  0  0  0  0  0  0  0  0
    1.7745   -2.8838    3.1647 H   0  0  0  0  0  0  0  0  0  0  0  0
    0.8095   -0.4525    4.5233 H   0  0  0  0  0  0  0  0  0  0  0  0
    0.1516   -1.9710    4.6883 H   0  0  0  0  0  0  0  0  0  0  0  0
    0.2792   -0.5746    2.1045 H   0  0  0  0  0  0  0  0  0  0  0  0
    0.8486   -1.8636    1.2213 H   0  0  0  0  0  0  0  0  0  0  0  0
   -3.5605    3.0364    0.7258 N   0  3  0  0  0  0  0  0  0  0  0  0
   -3.6840    2.1608    0.2039 H   0  0  0  0  0  0  0  0  0  0  0  0
   -2.4127    5.1588    0.7418 N   0  3  0  0  0  0  0  0  0  0  0  0
   -3.3255    5.6281    0.7704 H   0  0  0  0  0  0  0  0  0  0  0  0
    1.0055   -1.4517    4.4915 N   0  3  0  0  0  0  0  0  0  0  0  0
    1.7075   -1.6782    5.2057 H   0  0  0  0  0  0  0  0  0  0  0  0
    0.5059   -1.5673    2.1336 N   0  3  0  0  0  0  0  0  0  0  0  0
   -0.3429   -2.0982    2.3613 H   0  0  0  0  0  0  0  0  0  0  0  0
  1  6  2  0  0  0  0
  1  2  1  0  0  0  0
  1 29  1  0  0  0  0
  2  3  2  0  0  0  0
  2 30  1  0  0  0  0
  3  4  1  0  0  0  0
  3 31  1  0  0  0  0
  4  9  1  0  0  0  0
  4  5  2  0  0  0  0
  5  6  1  0  0  0  0
  5  7  1  0  0  0  0
  6 32  1  0  0  0  0
  7  8  2  0  0  0  0
  7 33  1  0  0  0  0
  8  9  1  0  0  0  0
  8 18  1  0  0  0  0
  9 10  1  0  0  0  0
 10 11  1  0  0  0  0
 10 34  1  0  0  0  0
 10 35  1  0  0  0  0
 11 16  2  0  0  0  0
 11 12  1  0  0  0  0
 12 13  2  0  0  0  0
 12 36  1  0  0  0  0
 13 14  1  0  0  0  0
 13 37  1  0  0  0  0
 14 15  2  0  0  0  0
 14 38  1  0  0  0  0
 15 16  1  0  0  0  0
 15 17  1  0  0  0  0
 16 39  1  0  0  0  0
 17 40  1  0  0  0  0
 17 56  1  0  0  0  0
 17 58  1  0  0  0  0
 18 19  2  0  0  0  0
 18 20  1  0  0  0  0
 20 21  1  0  0  0  0
 21 22  1  0  0  0  0
 21 45  1  0  0  0  0
 21 46  1  0  0  0  0
 22 27  2  0  0  0  0
 22 23  1  0  0  0  0
 23 24  2  0  0  0  0
 23 47  1  0  0  0  0
 24 25  1  0  0  0  0
 24 48  1  0  0  0  0
 25 26  2  0  0  0  0
 25 49  1  0  0  0  0
 26 27  1  0  0  0  0
 26 28  1  0  0  0  0
 27 50  1  0  0  0  0
 28 51  1  0  0  0  0
 28 60  1  0  0  0  0
 28 62  1  0  0  0  0
 41 56  1  0  0  0  0
 42 56  1  0  0  0  0
 43 58  1  0  0  0  0
 44 58  1  0  0  0  0
 52 60  1  0  0  0  0
 53 60  1  0  0  0  0
 54 62  1  0  0  0  0
 55 62  1  0  0  0  0
 56 57  1  0  0  0  0
 58 59  1  0  0  0  0
 60 61  1  0  0  0  0
 62 63  1  0  0  0  0
M  CHG  4  56   1  58   1  60   1  62   1
M  END
$$$$
