ZINC02007314
  -OEChem-08230709403D

 59 62  0     0  0  0  0  0  0999 V2000
    8.4872    0.9367   -3.7549 C   0  0  0  0  0  0  0  0  0  0  0  0
    7.8623    1.5580   -2.6882 C   0  0  0  0  0  0  0  0  0  0  0  0
    8.4871    2.5976   -2.0233 C   0  0  0  0  0  0  0  0  0  0  0  0
    9.7432    3.0145   -2.4142 C   0  0  0  0  0  0  0  0  0  0  0  0
   10.3804    2.3889   -3.4852 C   0  0  0  0  0  0  0  0  0  0  0  0
    9.7430    1.3446   -4.1550 C   0  0  0  0  0  0  0  0  0  0  0  0
   11.7285    2.8310   -3.9093 C   0  0  0  0  0  0  0  0  0  0  0  0
   12.3556    2.2108   -4.9679 N   0  0  0  0  0  0  0  0  0  0  0  0
    7.7972    3.2724   -0.8658 C   0  0  0  0  0  0  0  0  0  0  0  0
    7.0018    4.3987   -1.3605 N   0  0  0  0  0  0  0  0  0  0  0  0
    6.2933    5.1539   -0.4979 C   0  0  0  0  0  0  0  0  0  0  0  0
    6.2429    4.8482    0.6787 O   0  0  0  0  0  0  0  0  0  0  0  0
    5.5817    6.3461   -0.9782 C   0  0  0  0  0  0  0  0  0  0  0  0
    5.6456    6.8475   -2.2401 C   0  0  0  0  0  0  0  0  0  0  0  0
    4.8251    7.9983   -2.2889 C   0  0  0  0  0  0  0  0  0  0  0  0
    4.2645    8.1600   -1.0070 C   0  0  0  0  0  0  0  0  0  0  0  0
    4.7376    7.1363   -0.2197 N   0  0  0  0  0  0  0  0  0  0  0  0
    4.4067    6.9220    1.1912 C   0  0  0  0  0  0  0  0  0  0  0  0
    3.1460    6.1027    1.2927 C   0  0  0  0  0  0  0  0  0  0  0  0
    3.2214    4.7216    1.3315 C   0  0  0  0  0  0  0  0  0  0  0  0
    2.0688    3.9628    1.4251 C   0  0  0  0  0  0  0  0  0  0  0  0
    0.8352    4.5797    1.4740 C   0  0  0  0  0  0  0  0  0  0  0  0
    0.7530    5.9713    1.4410 C   0  0  0  0  0  0  0  0  0  0  0  0
    1.9189    6.7311    1.3471 C   0  0  0  0  0  0  0  0  0  0  0  0
   -0.5671    6.6397    1.4999 C   0  0  0  0  0  0  0  0  0  0  0  0
   -1.7171    5.8864    1.5926 N   0  0  0  0  0  0  0  0  0  0  0  0
    3.4048    9.2269   -0.7631 C   0  0  0  0  0  0  0  0  0  0  0  0
    3.1055   10.1168   -1.7712 C   0  0  0  0  0  0  0  0  0  0  0  0
    3.6534    9.9648   -3.0368 C   0  0  0  0  0  0  0  0  0  0  0  0
    4.5095    8.9154   -3.3061 C   0  0  0  0  0  0  0  0  0  0  0  0
    5.0431    8.7703   -4.5462 O   0  0  0  0  0  0  0  0  0  0  0  0
    7.9928    0.1280   -4.2726 H   0  0  0  0  0  0  0  0  0  0  0  0
    6.8811    1.2323   -2.3757 H   0  0  0  0  0  0  0  0  0  0  0  0
   10.2317    3.8238   -1.8919 H   0  0  0  0  0  0  0  0  0  0  0  0
   10.2317    0.8559   -4.9850 H   0  0  0  0  0  0  0  0  0  0  0  0
   13.2046    4.1673   -3.4849 H   0  0  0  0  0  0  0  0  0  0  0  0
   11.9140    1.4846   -5.4354 H   0  0  0  0  0  0  0  0  0  0  0  0
   13.2387    2.5005   -5.2458 H   0  0  0  0  0  0  0  0  0  0  0  0
    8.5438    3.6370   -0.1603 H   0  0  0  0  0  0  0  0  0  0  0  0
    7.1435    2.5578   -0.3658 H   0  0  0  0  0  0  0  0  0  0  0  0
    6.9850    4.6010   -2.3091 H   0  0  0  0  0  0  0  0  0  0  0  0
    6.2231    6.4422   -3.0578 H   0  0  0  0  0  0  0  0  0  0  0  0
    4.2544    7.8848    1.6791 H   0  0  0  0  0  0  0  0  0  0  0  0
    5.2245    6.3924    1.6798 H   0  0  0  0  0  0  0  0  0  0  0  0
    4.1841    4.2342    1.2889 H   0  0  0  0  0  0  0  0  0  0  0  0
    2.1339    2.8852    1.4553 H   0  0  0  0  0  0  0  0  0  0  0  0
   -0.0645    3.9860    1.5426 H   0  0  0  0  0  0  0  0  0  0  0  0
    1.8613    7.8091    1.3168 H   0  0  0  0  0  0  0  0  0  0  0  0
   -1.4593    8.4695    1.4968 H   0  0  0  0  0  0  0  0  0  0  0  0
   -1.6620    4.9184    1.6193 H   0  0  0  0  0  0  0  0  0  0  0  0
   -2.5819    6.3243    1.6311 H   0  0  0  0  0  0  0  0  0  0  0  0
    2.9714    9.3569    0.2175 H   0  0  0  0  0  0  0  0  0  0  0  0
    2.4373   10.9421   -1.5741 H   0  0  0  0  0  0  0  0  0  0  0  0
    3.4090   10.6716   -3.8159 H   0  0  0  0  0  0  0  0  0  0  0  0
    4.5093    8.2280   -5.1429 H   0  0  0  0  0  0  0  0  0  0  0  0
   12.2770    3.8269   -3.2308 N   0  3  0  0  0  0  0  0  0  0  0  0
   11.7689    4.2567   -2.4489 H   0  0  0  0  0  0  0  0  0  0  0  0
   -0.5746    7.9631    1.4591 N   0  3  0  0  0  0  0  0  0  0  0  0
    0.3100    8.4796    1.3897 H   0  0  0  0  0  0  0  0  0  0  0  0
  1  6  2  0  0  0  0
  1  2  1  0  0  0  0
  1 32  1  0  0  0  0
  2  3  2  0  0  0  0
  2 33  1  0  0  0  0
  3  4  1  0  0  0  0
  3  9  1  0  0  0  0
  4  5  2  0  0  0  0
  4 34  1  0  0  0  0
  5  6  1  0  0  0  0
  5  7  1  0  0  0  0
  6 35  1  0  0  0  0
  7  8  1  0  0  0  0
  7 56  2  0  0  0  0
  8 37  1  0  0  0  0
  8 38  1  0  0  0  0
  9 10  1  0  0  0  0
  9 39  1  0  0  0  0
  9 40  1  0  0  0  0
 10 11  1  0  0  0  0
 10 41  1  0  0  0  0
 11 12  2  0  0  0  0
 11 13  1  0  0  0  0
 13 17  1  0  0  0  0
 13 14  2  0  0  0  0
 14 15  1  0  0  0  0
 14 42  1  0  0  0  0
 15 30  2  0  0  0  0
 15 16  1  0  0  0  0
 16 17  1  0  0  0  0
 16 27  2  0  0  0  0
 17 18  1  0  0  0  0
 18 19  1  0  0  0  0
 18 43  1  0  0  0  0
 18 44  1  0  0  0  0
 19 24  2  0  0  0  0
 19 20  1  0  0  0  0
 20 21  2  0  0  0  0
 20 45  1  0  0  0  0
 21 22  1  0  0  0  0
 21 46  1  0  0  0  0
 22 23  2  0  0  0  0
 22 47  1  0  0  0  0
 23 24  1  0  0  0  0
 23 25  1  0  0  0  0
 24 48  1  0  0  0  0
 25 26  1  0  0  0  0
 25 58  2  0  0  0  0
 26 50  1  0  0  0  0
 26 51  1  0  0  0  0
 27 28  1  0  0  0  0
 27 52  1  0  0  0  0
 28 29  2  0  0  0  0
 28 53  1  0  0  0  0
 29 30  1  0  0  0  0
 29 54  1  0  0  0  0
 30 31  1  0  0  0  0
 31 55  1  0  0  0  0
 36 56  1  0  0  0  0
 49 58  1  0  0  0  0
 56 57  1  0  0  0  0
 58 59  1  0  0  0  0
M  CHG  2  56   1  58   1
M  END
$$$$
