ZINC04633281
  -OEChem-08230709403D

 75 77  0     1  0  0  0  0  0999 V2000
   -0.5905   -4.2086    1.2344 C   0  0  0  0  0  0  0  0  0  0  0  0
   -0.5311   -2.6798    1.2421 C   0  0  2  0  0  0  0  0  0  0  0  0
   -1.0220   -2.3016    2.1388 H   0  0  0  0  0  0  0  0  0  0  0  0
   -1.2439   -2.1355    0.0025 C   0  0  1  0  0  0  0  0  0  0  0  0
   -0.7531   -2.5137   -0.8943 H   0  0  0  0  0  0  0  0  0  0  0  0
   -2.7051   -2.5893    0.0140 C   0  0  0  0  0  0  0  0  0  0  0  0
   -3.3751   -2.1579   -1.2651 C   0  0  0  0  0  0  0  0  0  0  0  0
   -4.0043   -0.9287   -1.3354 C   0  0  0  0  0  0  0  0  0  0  0  0
   -4.6146   -0.5311   -2.5100 C   0  0  0  0  0  0  0  0  0  0  0  0
   -4.6051   -1.3668   -3.6113 C   0  0  0  0  0  0  0  0  0  0  0  0
   -3.9806   -2.5977   -3.5394 C   0  0  0  0  0  0  0  0  0  0  0  0
   -3.3656   -2.9933   -2.3661 C   0  0  0  0  0  0  0  0  0  0  0  0
   -3.9707   -3.5089   -4.7397 C   0  0  0  0  0  0  0  0  0  0  0  0
   -1.1855   -0.6297    0.0100 C   0  0  0  0  0  0  0  0  0  0  0  0
   -2.2076    0.0145    0.0232 O   0  0  0  0  0  0  0  0  0  0  0  0
    0.0021   -0.0041    0.0020 O   0  0  0  0  0  0  0  0  0  0  0  0
   -0.0176    1.4478    0.0100 C   0  0  0  0  0  0  0  0  0  0  0  0
    0.8679   -2.2453    1.2310 N   0  0  0  0  0  0  0  0  0  0  0  0
    1.5527   -2.1489    2.3878 C   0  0  0  0  0  0  0  0  0  0  0  0
    1.0108   -2.4217    3.4379 O   0  0  0  0  0  0  0  0  0  0  0  0
    2.9919   -1.7020    2.3765 C   0  0  0  0  0  0  0  0  0  0  0  0
    3.8214   -2.6747    1.5359 C   0  0  0  0  0  0  0  0  0  0  0  0
    3.7278   -4.0778    2.1389 C   0  0  0  0  0  0  0  0  0  0  0  0
    4.2658   -4.0543    3.5710 C   0  0  0  0  0  0  0  0  0  0  0  0
    3.4364   -3.0815    4.4116 C   0  0  0  0  0  0  0  0  0  0  0  0
    3.5299   -1.6785    3.8086 C   0  0  0  0  0  0  0  0  0  0  0  0
    4.1723   -5.4573    4.1740 C   0  0  0  0  0  0  0  0  0  0  0  0
    4.7099   -5.4334    5.6067 C   0  0  0  0  0  0  0  0  0  0  0  0
    4.5823   -6.8318    6.2191 C   0  0  0  0  0  0  0  0  0  0  0  0
    5.2549   -7.7966    5.3385 N   0  3  0  0  0  0  0  0  0  0  0  0
    4.8776   -7.8400    3.9192 C   0  0  0  0  0  0  0  0  0  0  0  0
    5.0015   -6.4303    3.3327 C   0  0  0  0  0  0  0  0  0  0  0  0
    6.2483   -8.6677    5.8479 O   0  5  0  0  0  0  0  0  0  0  0  0
   -0.0996   -4.5868    0.3377 H   0  0  0  0  0  0  0  0  0  0  0  0
   -0.0826   -4.5963    2.1175 H   0  0  0  0  0  0  0  0  0  0  0  0
   -1.6314   -4.5319    1.2426 H   0  0  0  0  0  0  0  0  0  0  0  0
   -2.7476   -3.6752    0.0981 H   0  0  0  0  0  0  0  0  0  0  0  0
   -3.2188   -2.1386    0.8632 H   0  0  0  0  0  0  0  0  0  0  0  0
   -4.0156   -0.2778   -0.4737 H   0  0  0  0  0  0  0  0  0  0  0  0
   -5.1029    0.4306   -2.5661 H   0  0  0  0  0  0  0  0  0  0  0  0
   -5.0859   -1.0579   -4.5278 H   0  0  0  0  0  0  0  0  0  0  0  0
   -2.8779   -3.9553   -2.3097 H   0  0  0  0  0  0  0  0  0  0  0  0
   -4.8476   -4.1557   -4.7122 H   0  0  0  0  0  0  0  0  0  0  0  0
   -3.1923   -2.0935   -6.0162 H   0  0  0  0  0  0  0  0  0  0  0  0
   -4.0545   -3.2900   -6.7850 H   0  0  0  0  0  0  0  0  0  0  0  0
   -2.7239   -4.9522   -5.5149 H   0  0  0  0  0  0  0  0  0  0  0  0
   -1.9276   -3.7548   -4.6793 H   0  0  0  0  0  0  0  0  0  0  0  0
    1.0050    1.8251    0.0023 H   0  0  0  0  0  0  0  0  0  0  0  0
   -0.5448    1.8089   -0.8731 H   0  0  0  0  0  0  0  0  0  0  0  0
   -0.5278    1.7993    0.9068 H   0  0  0  0  0  0  0  0  0  0  0  0
    1.3014   -2.0271    0.3912 H   0  0  0  0  0  0  0  0  0  0  0  0
    3.0586   -0.7024    1.9469 H   0  0  0  0  0  0  0  0  0  0  0  0
    3.4381   -2.6914    0.5157 H   0  0  0  0  0  0  0  0  0  0  0  0
    4.8623   -2.3515    1.5277 H   0  0  0  0  0  0  0  0  0  0  0  0
    4.3188   -4.7708    1.5401 H   0  0  0  0  0  0  0  0  0  0  0  0
    2.6869   -4.4010    2.1471 H   0  0  0  0  0  0  0  0  0  0  0  0
    5.3068   -3.7310    3.5628 H   0  0  0  0  0  0  0  0  0  0  0  0
    3.8197   -3.0648    5.4318 H   0  0  0  0  0  0  0  0  0  0  0  0
    2.3954   -3.4048    4.4198 H   0  0  0  0  0  0  0  0  0  0  0  0
    4.5709   -1.3552    3.8004 H   0  0  0  0  0  0  0  0  0  0  0  0
    2.9390   -0.9855    4.4074 H   0  0  0  0  0  0  0  0  0  0  0  0
    3.1313   -5.7804    4.1822 H   0  0  0  0  0  0  0  0  0  0  0  0
    5.7580   -5.1345    5.5970 H   0  0  0  0  0  0  0  0  0  0  0  0
    4.1339   -4.7229    6.1996 H   0  0  0  0  0  0  0  0  0  0  0  0
    3.5288   -7.0953    6.3127 H   0  0  0  0  0  0  0  0  0  0  0  0
    5.0513   -6.8463    7.2029 H   0  0  0  0  0  0  0  0  0  0  0  0
    3.8481   -8.1857    3.8252 H   0  0  0  0  0  0  0  0  0  0  0  0
    5.5412   -8.5185    3.3830 H   0  0  0  0  0  0  0  0  0  0  0  0
    4.6331   -6.4293    2.3068 H   0  0  0  0  0  0  0  0  0  0  0  0
    6.0468   -6.1215    3.3442 H   0  0  0  0  0  0  0  0  0  0  0  0
   -4.0170   -2.6891   -5.9633 N   0  3  0  0  0  0  0  0  0  0  0  0
   -4.8563   -2.0980   -5.9420 H   0  0  0  0  0  0  0  0  0  0  0  0
   -2.7578   -4.3448   -4.6979 N   0  3  0  0  0  0  0  0  0  0  0  0
   -2.7762   -4.9240   -3.8503 H   0  0  0  0  0  0  0  0  0  0  0  0
    5.9416   -8.4257    5.7027 H   0  0  0  0  0  0  0  0  0  0  0  0
  1  2  1  0  0  0  0
  1 34  1  0  0  0  0
  1 35  1  0  0  0  0
  1 36  1  0  0  0  0
  2  3  1  0  0  0  0
  2  4  1  0  0  0  0
  2 18  1  0  0  0  0
  4  5  1  0  0  0  0
  4  6  1  0  0  0  0
  4 14  1  0  0  0  0
  6  7  1  0  0  0  0
  6 37  1  0  0  0  0
  6 38  1  0  0  0  0
  7 12  2  0  0  0  0
  7  8  1  0  0  0  0
  8  9  2  0  0  0  0
  8 39  1  0  0  0  0
  9 10  1  0  0  0  0
  9 40  1  0  0  0  0
 10 11  2  0  0  0  0
 10 41  1  0  0  0  0
 11 12  1  0  0  0  0
 11 13  1  0  0  0  0
 12 42  1  0  0  0  0
 13 43  1  0  0  0  0
 13 71  1  0  0  0  0
 13 73  1  0  0  0  0
 14 15  2  0  0  0  0
 14 16  1  0  0  0  0
 16 17  1  0  0  0  0
 17 48  1  0  0  0  0
 17 49  1  0  0  0  0
 17 50  1  0  0  0  0
 18 19  1  0  0  0  0
 18 51  1  0  0  0  0
 19 20  2  0  0  0  0
 19 21  1  0  0  0  0
 21 26  1  0  0  0  0
 21 22  1  0  0  0  0
 21 52  1  0  0  0  0
 22 23  1  0  0  0  0
 22 53  1  0  0  0  0
 22 54  1  0  0  0  0
 23 24  1  0  0  0  0
 23 55  1  0  0  0  0
 23 56  1  0  0  0  0
 24 25  1  0  0  0  0
 24 27  1  0  0  0  0
 24 57  1  0  0  0  0
 25 26  1  0  0  0  0
 25 58  1  0  0  0  0
 25 59  1  0  0  0  0
 26 60  1  0  0  0  0
 26 61  1  0  0  0  0
 27 32  1  0  0  0  0
 27 28  1  0  0  0  0
 27 62  1  0  0  0  0
 28 29  1  0  0  0  0
 28 63  1  0  0  0  0
 28 64  1  0  0  0  0
 29 30  1  0  0  0  0
 29 65  1  0  0  0  0
 29 66  1  0  0  0  0
 30 31  1  0  0  0  0
 30 33  1  0  0  0  0
 31 32  1  0  0  0  0
 31 67  1  0  0  0  0
 31 68  1  0  0  0  0
 32 69  1  0  0  0  0
 32 70  1  0  0  0  0
 44 71  1  0  0  0  0
 45 71  1  0  0  0  0
 46 73  1  0  0  0  0
 47 73  1  0  0  0  0
 71 72  1  0  0  0  0
 73 74  1  0  0  0  0
 30 75  1  0  0  0  0
M  CHG  4  30   1  33  -1  71   1  73   1
M  END
$$$$
