ZINC03815613
  -OEChem-08230709403D

 65 69  0     1  0  0  0  0  0999 V2000
    1.5372    7.2099   -2.8128 C   0  0  0  0  0  0  0  0  0  0  0  0
    1.3053    8.2138   -3.7040 C   0  0  0  0  0  0  0  0  0  0  0  0
    1.6215    8.0356   -5.0548 C   0  0  0  0  0  0  0  0  0  0  0  0
    2.1800    6.8196   -5.4970 C   0  0  0  0  0  0  0  0  0  0  0  0
    2.4177    5.8051   -4.5823 C   0  0  0  0  0  0  0  0  0  0  0  0
    2.0924    5.9957   -3.2411 C   0  0  0  0  0  0  0  0  0  0  0  0
    2.3392    4.9165   -2.2653 C   0  0  0  0  0  0  0  0  0  0  0  0
    2.8205    3.8624   -2.6334 O   0  0  0  0  0  0  0  0  0  0  0  0
    2.0309    5.0994   -0.9660 N   0  0  0  0  0  0  0  0  0  0  0  0
    2.2759    4.0280    0.0027 C   0  0  2  0  0  0  0  0  0  0  0  0
    3.1810    3.4876   -0.2743 H   0  0  0  0  0  0  0  0  0  0  0  0
    1.1057    3.0785    0.0081 C   0  0  0  0  0  0  0  0  0  0  0  0
    1.1089    1.7655    0.0010 N   0  0  0  0  0  0  0  0  0  0  0  0
   -0.0126    1.0758    0.0080 C   0  0  0  0  0  0  0  0  0  0  0  0
   -1.1877    1.7552    0.0171 C   0  0  0  0  0  0  0  0  0  0  0  0
   -0.5927    3.4402    0.0263 S   0  0  0  0  0  0  0  0  0  0  0  0
    2.4465    4.6227    1.3769 C   0  0  0  0  0  0  0  0  0  0  0  0
    2.3710    5.8232    1.5318 O   0  0  0  0  0  0  0  0  0  0  0  0
    2.6831    3.8204    2.4337 N   0  0  0  0  0  0  0  0  0  0  0  0
    2.8490    4.3985    3.7696 C   0  0  0  0  0  0  0  0  0  0  0  0
    3.1048    3.2796    4.7813 C   0  0  0  0  0  0  0  0  0  0  0  0
    1.8649    2.3867    4.8811 C   0  0  0  0  0  0  0  0  0  0  0  0
    2.1036    1.3073    5.9394 C   0  0  0  0  0  0  0  0  0  0  0  0
    3.5934    2.7652    7.1751 C   0  0  0  0  0  0  0  0  0  0  0  0
    3.3987    3.8891    6.1549 C   0  0  0  0  0  0  0  0  0  0  0  0
    2.4775    0.9363    8.3023 C   0  0  0  0  0  0  0  0  0  0  0  0
    3.6403   -0.0342    8.0093 C   0  0  0  0  0  0  0  0  0  0  0  0
    3.1166   -1.4105    8.4895 C   0  0  0  0  0  0  0  0  0  0  0  0
    1.6242   -1.3712    8.0768 C   0  0  0  0  0  0  0  0  0  0  0  0
    1.1956    0.0862    8.3452 C   0  0  0  0  0  0  0  0  0  0  0  0
    2.3814    6.9351   -6.8555 N   0  0  0  0  0  0  0  0  0  0  0  0
    2.7560    6.2444   -7.4242 H   0  0  0  0  0  0  0  0  0  0  0  0
    1.9740    8.1685   -7.2820 C   0  0  0  0  0  0  0  0  0  0  0  0
    1.5048    8.8817   -6.2426 C   0  0  0  0  0  0  0  0  0  0  0  0
    0.8785   10.4998   -6.2998 Cl  0  0  0  0  0  0  0  0  0  0  0  0
    1.2918    7.3499   -1.7704 H   0  0  0  0  0  0  0  0  0  0  0  0
    0.8777    9.1468   -3.3676 H   0  0  0  0  0  0  0  0  0  0  0  0
    2.8490    4.8702   -4.9085 H   0  0  0  0  0  0  0  0  0  0  0  0
    1.6469    5.9403   -0.6723 H   0  0  0  0  0  0  0  0  0  0  0  0
    0.0021   -0.0041    0.0020 H   0  0  0  0  0  0  0  0  0  0  0  0
   -2.2009    1.3812    0.0198 H   0  0  0  0  0  0  0  0  0  0  0  0
    2.7435    2.8603    2.3098 H   0  0  0  0  0  0  0  0  0  0  0  0
    3.6953    5.0853    3.7657 H   0  0  0  0  0  0  0  0  0  0  0  0
    1.9438    4.9389    4.0466 H   0  0  0  0  0  0  0  0  0  0  0  0
    3.9578    2.6835    4.4572 H   0  0  0  0  0  0  0  0  0  0  0  0
    1.0035    2.9906    5.1664 H   0  0  0  0  0  0  0  0  0  0  0  0
    1.6766    1.9162    3.9161 H   0  0  0  0  0  0  0  0  0  0  0  0
    2.9559    0.6944    5.6460 H   0  0  0  0  0  0  0  0  0  0  0  0
    1.2166    0.6793    6.0239 H   0  0  0  0  0  0  0  0  0  0  0  0
    4.4388    2.1455    6.8759 H   0  0  0  0  0  0  0  0  0  0  0  0
    3.7886    3.1960    8.1572 H   0  0  0  0  0  0  0  0  0  0  0  0
    4.3055    4.4913    6.0993 H   0  0  0  0  0  0  0  0  0  0  0  0
    2.5624    4.5179    6.4604 H   0  0  0  0  0  0  0  0  0  0  0  0
    2.6327    1.4267    9.2633 H   0  0  0  0  0  0  0  0  0  0  0  0
    3.8560   -0.0597    6.9411 H   0  0  0  0  0  0  0  0  0  0  0  0
    4.5284    0.2535    8.5720 H   0  0  0  0  0  0  0  0  0  0  0  0
    3.2160   -1.5057    9.5708 H   0  0  0  0  0  0  0  0  0  0  0  0
    3.6371   -2.2212    7.9798 H   0  0  0  0  0  0  0  0  0  0  0  0
    1.0409   -2.0592    8.6888 H   0  0  0  0  0  0  0  0  0  0  0  0
    1.5143   -1.6126    7.0196 H   0  0  0  0  0  0  0  0  0  0  0  0
    0.7292    0.1634    9.3273 H   0  0  0  0  0  0  0  0  0  0  0  0
    0.5005    0.4197    7.5748 H   0  0  0  0  0  0  0  0  0  0  0  0
    2.0219    8.5185   -8.3026 H   0  0  0  0  0  0  0  0  0  0  0  0
    2.3564    1.9586    7.2424 N   0  3  0  0  0  0  0  0  0  0  0  0
    1.5674    2.5770    7.4643 H   0  0  0  0  0  0  0  0  0  0  0  0
  1  6  2  0  0  0  0
  1  2  1  0  0  0  0
  1 36  1  0  0  0  0
  2  3  2  0  0  0  0
  2 37  1  0  0  0  0
  3 34  1  0  0  0  0
  3  4  1  0  0  0  0
  4  5  2  0  0  0  0
  4 31  1  0  0  0  0
  5  6  1  0  0  0  0
  5 38  1  0  0  0  0
  6  7  1  0  0  0  0
  7  8  2  0  0  0  0
  7  9  1  0  0  0  0
  9 10  1  0  0  0  0
  9 39  1  0  0  0  0
 10 11  1  0  0  0  0
 10 12  1  0  0  0  0
 10 17  1  0  0  0  0
 12 16  1  0  0  0  0
 12 13  2  0  0  0  0
 13 14  1  0  0  0  0
 14 15  2  0  0  0  0
 14 40  1  0  0  0  0
 15 16  1  0  0  0  0
 15 41  1  0  0  0  0
 17 18  2  0  0  0  0
 17 19  1  0  0  0  0
 19 20  1  0  0  0  0
 19 42  1  0  0  0  0
 20 21  1  0  0  0  0
 20 43  1  0  0  0  0
 20 44  1  0  0  0  0
 21 25  1  0  0  0  0
 21 22  1  0  0  0  0
 21 45  1  0  0  0  0
 22 23  1  0  0  0  0
 22 46  1  0  0  0  0
 22 47  1  0  0  0  0
 23 48  1  0  0  0  0
 23 49  1  0  0  0  0
 23 64  1  0  0  0  0
 24 25  1  0  0  0  0
 24 50  1  0  0  0  0
 24 51  1  0  0  0  0
 24 64  1  0  0  0  0
 25 52  1  0  0  0  0
 25 53  1  0  0  0  0
 26 30  1  0  0  0  0
 26 27  1  0  0  0  0
 26 54  1  0  0  0  0
 26 64  1  0  0  0  0
 27 28  1  0  0  0  0
 27 55  1  0  0  0  0
 27 56  1  0  0  0  0
 28 29  1  0  0  0  0
 28 57  1  0  0  0  0
 28 58  1  0  0  0  0
 29 30  1  0  0  0  0
 29 59  1  0  0  0  0
 29 60  1  0  0  0  0
 30 61  1  0  0  0  0
 30 62  1  0  0  0  0
 31 32  1  0  0  0  0
 31 33  1  0  0  0  0
 33 34  2  0  0  0  0
 33 63  1  0  0  0  0
 34 35  1  0  0  0  0
 64 65  1  0  0  0  0
M  CHG  1  64   1
M  END
$$$$
