ZINC03815576
  -OEChem-08230709403D

 54 58  0     1  0  0  0  0  0999 V2000
   10.3692   -0.8622   -1.7725 C   0  0  0  0  0  0  0  0  0  0  0  0
   11.4027   -0.6623   -0.9120 C   0  0  0  0  0  0  0  0  0  0  0  0
   11.7739    0.6136   -0.5069 C   0  0  0  0  0  0  0  0  0  0  0  0
   11.0801    1.7084   -0.9866 C   0  0  0  0  0  0  0  0  0  0  0  0
   10.0307    1.5177   -1.8593 C   0  0  0  0  0  0  0  0  0  0  0  0
    9.6338    0.2318   -2.2863 C   0  0  0  0  0  0  0  0  0  0  0  0
    8.5073    0.2197   -3.2084 C   0  0  0  0  0  0  0  0  0  0  0  0
    7.9462    1.3807   -3.5748 C   0  0  0  0  0  0  0  0  0  0  0  0
    8.9069    2.6021   -2.7013 S   0  0  0  0  0  0  0  0  0  0  0  0
    6.5872    1.6386   -4.6663 S   0  0  0  0  0  0  0  0  0  0  0  0
    6.5290    0.5025   -5.5178 O   0  0  0  0  0  0  0  0  0  0  0  0
    6.7154    2.9615   -5.1689 O   0  0  0  0  0  0  0  0  0  0  0  0
    5.2097    1.6126   -3.7476 N   0  0  3  0  0  0  0  0  0  0  0  0
    4.4778    0.3590   -3.4992 C   0  0  0  0  0  0  0  0  0  0  0  0
    4.4820    0.0977   -1.9898 C   0  0  0  0  0  0  0  0  0  0  0  0
    4.1195    1.3038   -1.2583 N   0  0  0  0  0  0  0  0  0  0  0  0
    4.2348    2.5433   -1.7373 C   0  0  0  0  0  0  0  0  0  0  0  0
    3.9797    3.4736   -1.0022 O   0  0  0  0  0  0  0  0  0  0  0  0
    4.6672    2.8405   -3.1472 C   0  0  0  0  0  0  0  0  0  0  0  0
    3.5972    1.1448    0.1012 C   0  0  0  0  0  0  0  0  0  0  0  0
    2.1124    0.8938    0.0427 C   0  0  0  0  0  0  0  0  0  0  0  0
    1.3026    1.2886   -0.9530 C   0  0  0  0  0  0  0  0  0  0  0  0
   -0.0469    0.8403   -0.6083 C   0  0  0  0  0  0  0  0  0  0  0  0
   -1.2999    0.9326   -1.2111 C   0  0  0  0  0  0  0  0  0  0  0  0
   -2.3539    0.4056   -0.6226 N   0  0  0  0  0  0  0  0  0  0  0  0
   -2.2734   -0.2208    0.5399 C   0  0  0  0  0  0  0  0  0  0  0  0
   -1.0836   -0.3612    1.1984 C   0  0  0  0  0  0  0  0  0  0  0  0
    0.0694    0.1780    0.6317 C   0  0  0  0  0  0  0  0  0  0  0  0
    1.3895    0.2288    0.9970 N   0  0  0  0  0  0  0  0  0  0  0  0
    1.9446   -0.3431    2.2262 C   0  0  0  0  0  0  0  0  0  0  0  0
    2.3153   -1.8078    1.9851 C   0  0  0  0  0  0  0  0  0  0  0  0
    2.8569   -2.3657    3.1842 O   0  0  0  0  0  0  0  0  0  0  0  0
   13.0994    0.8313    0.5928 Cl  0  0  0  0  0  0  0  0  0  0  0  0
   10.1064   -1.8675   -2.0669 H   0  0  0  0  0  0  0  0  0  0  0  0
   11.9474   -1.5151   -0.5344 H   0  0  0  0  0  0  0  0  0  0  0  0
   11.3584    2.7059   -0.6801 H   0  0  0  0  0  0  0  0  0  0  0  0
    8.1274   -0.7152   -3.5931 H   0  0  0  0  0  0  0  0  0  0  0  0
    3.4525    0.4547   -3.8565 H   0  0  0  0  0  0  0  0  0  0  0  0
    4.9720   -0.4639   -4.0157 H   0  0  0  0  0  0  0  0  0  0  0  0
    5.4765   -0.2241   -1.6808 H   0  0  0  0  0  0  0  0  0  0  0  0
    3.7638   -0.6898   -1.7615 H   0  0  0  0  0  0  0  0  0  0  0  0
    3.8102    3.1827   -3.7274 H   0  0  0  0  0  0  0  0  0  0  0  0
    5.4346    3.6145   -3.1383 H   0  0  0  0  0  0  0  0  0  0  0  0
    3.7900    2.0526    0.6729 H   0  0  0  0  0  0  0  0  0  0  0  0
    4.0898    0.3004    0.5832 H   0  0  0  0  0  0  0  0  0  0  0  0
    1.5922    1.8330   -1.8397 H   0  0  0  0  0  0  0  0  0  0  0  0
   -1.4068    1.4360   -2.1606 H   0  0  0  0  0  0  0  0  0  0  0  0
   -3.1696   -0.6346    0.9781 H   0  0  0  0  0  0  0  0  0  0  0  0
   -1.0392   -0.8764    2.1466 H   0  0  0  0  0  0  0  0  0  0  0  0
    2.8354    0.2141    2.5162 H   0  0  0  0  0  0  0  0  0  0  0  0
    1.2028   -0.2824    3.0225 H   0  0  0  0  0  0  0  0  0  0  0  0
    1.4246   -2.3651    1.6951 H   0  0  0  0  0  0  0  0  0  0  0  0
    3.0572   -1.8685    1.1888 H   0  0  0  0  0  0  0  0  0  0  0  0
    3.1146   -3.2943    3.1045 H   0  0  0  0  0  0  0  0  0  0  0  0
  1  6  2  0  0  0  0
  1  2  1  0  0  0  0
  1 34  1  0  0  0  0
  2  3  2  0  0  0  0
  2 35  1  0  0  0  0
  3  4  1  0  0  0  0
  3 33  1  0  0  0  0
  4  5  2  0  0  0  0
  4 36  1  0  0  0  0
  5  9  1  0  0  0  0
  5  6  1  0  0  0  0
  6  7  1  0  0  0  0
  7  8  2  0  0  0  0
  7 37  1  0  0  0  0
  8  9  1  0  0  0  0
  8 10  1  0  0  0  0
 10 11  2  0  0  0  0
 10 12  2  0  0  0  0
 10 13  1  0  0  0  0
 13 19  1  0  0  0  0
 13 14  1  0  0  0  0
 14 15  1  0  0  0  0
 14 38  1  0  0  0  0
 14 39  1  0  0  0  0
 15 16  1  0  0  0  0
 15 40  1  0  0  0  0
 15 41  1  0  0  0  0
 16 17  1  0  0  0  0
 16 20  1  0  0  0  0
 17 18  2  0  0  0  0
 17 19  1  0  0  0  0
 19 42  1  0  0  0  0
 19 43  1  0  0  0  0
 20 21  1  0  0  0  0
 20 44  1  0  0  0  0
 20 45  1  0  0  0  0
 21 29  1  0  0  0  0
 21 22  2  0  0  0  0
 22 23  1  0  0  0  0
 22 46  1  0  0  0  0
 23 28  2  0  0  0  0
 23 24  1  0  0  0  0
 24 25  2  0  0  0  0
 24 47  1  0  0  0  0
 25 26  1  0  0  0  0
 26 27  2  0  0  0  0
 26 48  1  0  0  0  0
 27 28  1  0  0  0  0
 27 49  1  0  0  0  0
 28 29  1  0  0  0  0
 29 30  1  0  0  0  0
 30 31  1  0  0  0  0
 30 50  1  0  0  0  0
 30 51  1  0  0  0  0
 31 32  1  0  0  0  0
 31 52  1  0  0  0  0
 31 53  1  0  0  0  0
 32 54  1  0  0  0  0
M  END
$$$$
