ZINC03815583
  -OEChem-08230709403D

 66 68  0     1  0  0  0  0  0999 V2000
   -0.1553   -3.7790   -0.0180 H   0  0  0  0  0  0  0  0  0  0  0  0
    1.3480   -2.4062   -0.0243 C   0  0  0  0  0  0  0  0  0  0  0  0
    1.6147   -0.9496   -0.0185 C   0  0  0  0  0  0  0  0  0  0  0  0
    2.9274   -0.4781   -0.0287 C   0  0  0  0  0  0  0  0  0  0  0  0
    3.1697    0.8802   -0.0237 C   0  0  0  0  0  0  0  0  0  0  0  0
    2.1136    1.7740   -0.0086 C   0  0  0  0  0  0  0  0  0  0  0  0
    0.8098    1.3125    0.0014 C   0  0  0  0  0  0  0  0  0  0  0  0
    0.5548   -0.0438   -0.0034 C   0  0  0  0  0  0  0  0  0  0  0  0
   -0.3348    2.2928    0.0114 C   0  0  0  0  0  0  0  0  0  0  0  0
   -0.7150    2.6180    1.4574 C   0  0  2  0  0  0  0  0  0  0  0  0
   -0.9299    1.6935    1.9933 H   0  0  0  0  0  0  0  0  0  0  0  0
   -1.9549    3.5145    1.4692 C   0  0  1  0  0  0  0  0  0  0  0  0
   -1.7400    4.4390    0.9333 H   0  0  0  0  0  0  0  0  0  0  0  0
   -3.1161    2.7880    0.7876 C   0  0  0  0  0  0  0  0  0  0  0  0
   -2.3191    3.8259    2.8537 N   0  0  0  0  0  0  0  0  0  0  0  0
   -3.0139    4.9467    3.1319 C   0  0  0  0  0  0  0  0  0  0  0  0
   -3.3387    5.6992    2.2340 O   0  0  0  0  0  0  0  0  0  0  0  0
   -3.3812    5.2607    4.5278 C   0  0  0  0  0  0  0  0  0  0  0  0
   -3.0132    4.3934    5.5595 C   0  0  0  0  0  0  0  0  0  0  0  0
   -3.3509    4.6899    6.8607 C   0  0  0  0  0  0  0  0  0  0  0  0
   -4.0699    5.8504    7.1481 C   0  0  0  0  0  0  0  0  0  0  0  0
   -4.4432    6.7140    6.1181 C   0  0  0  0  0  0  0  0  0  0  0  0
   -4.1015    6.4223    4.8167 C   0  0  0  0  0  0  0  0  0  0  0  0
   -4.4380    6.1659    8.5494 C   0  0  0  0  0  0  0  0  0  0  0  0
   -5.1518    7.3275    8.8408 C   0  0  0  0  0  0  0  0  0  0  0  0
   -5.4957    7.6134   10.1461 C   0  0  0  0  0  0  0  0  0  0  0  0
   -5.1244    6.7554   11.1660 C   0  0  0  0  0  0  0  0  0  0  0  0
   -4.4116    5.6043   10.8835 C   0  0  0  0  0  0  0  0  0  0  0  0
   -4.0666    5.3053    9.5810 C   0  0  0  0  0  0  0  0  0  0  0  0
   -4.0104    4.6751   12.0000 C   0  0  0  0  0  0  0  0  0  0  0  0
    0.4287    3.3337    2.1287 C   0  0  0  0  0  0  0  0  0  0  0  0
    1.4438    3.5603    1.5139 O   0  0  0  0  0  0  0  0  0  0  0  0
    0.3197    3.7194    3.4098 O   0  0  0  0  0  0  0  0  0  0  0  0
    1.4605    4.4035    3.9917 C   0  0  0  0  0  0  0  0  0  0  0  0
    2.3975   -3.2987   -0.0393 N   0  0  0  0  0  0  0  0  0  0  0  0
    3.7526   -1.1748   -0.0408 H   0  0  0  0  0  0  0  0  0  0  0  0
    4.1857    1.2464   -0.0311 H   0  0  0  0  0  0  0  0  0  0  0  0
    2.3082    2.8363   -0.0047 H   0  0  0  0  0  0  0  0  0  0  0  0
   -0.4637   -0.4029    0.0048 H   0  0  0  0  0  0  0  0  0  0  0  0
   -0.0343    3.2074   -0.4997 H   0  0  0  0  0  0  0  0  0  0  0  0
   -1.1922    1.8556   -0.5002 H   0  0  0  0  0  0  0  0  0  0  0  0
   -3.9994    3.4265    0.7961 H   0  0  0  0  0  0  0  0  0  0  0  0
   -2.8452    2.5562   -0.2424 H   0  0  0  0  0  0  0  0  0  0  0  0
   -3.3310    1.8634    1.3235 H   0  0  0  0  0  0  0  0  0  0  0  0
   -2.0600    3.2255    3.5701 H   0  0  0  0  0  0  0  0  0  0  0  0
   -2.4605    3.4927    5.3366 H   0  0  0  0  0  0  0  0  0  0  0  0
   -3.0631    4.0218    7.6588 H   0  0  0  0  0  0  0  0  0  0  0  0
   -5.0000    7.6120    6.3416 H   0  0  0  0  0  0  0  0  0  0  0  0
   -4.3906    7.0910    4.0195 H   0  0  0  0  0  0  0  0  0  0  0  0
   -5.4383    8.0003    8.0460 H   0  0  0  0  0  0  0  0  0  0  0  0
   -6.0520    8.5111   10.3727 H   0  0  0  0  0  0  0  0  0  0  0  0
   -5.3919    6.9856   12.1868 H   0  0  0  0  0  0  0  0  0  0  0  0
   -3.5096    4.4063    9.3615 H   0  0  0  0  0  0  0  0  0  0  0  0
   -4.7470    4.7308   12.8015 H   0  0  0  0  0  0  0  0  0  0  0  0
   -3.9608    3.6538   11.6225 H   0  0  0  0  0  0  0  0  0  0  0  0
   -2.6963    6.0349   12.8137 H   0  0  0  0  0  0  0  0  0  0  0  0
   -2.4019    4.4622   13.2673 H   0  0  0  0  0  0  0  0  0  0  0  0
    1.6644    5.3139    3.4280 H   0  0  0  0  0  0  0  0  0  0  0  0
    1.2409    4.6593    5.0282 H   0  0  0  0  0  0  0  0  0  0  0  0
    2.3328    3.7508    3.9555 H   0  0  0  0  0  0  0  0  0  0  0  0
    3.3111   -2.9730   -0.0460 H   0  0  0  0  0  0  0  0  0  0  0  0
    2.2227   -4.2528   -0.0430 H   0  0  0  0  0  0  0  0  0  0  0  0
    0.0797   -2.7863   -0.0145 N   0  3  0  0  0  0  0  0  0  0  0  0
   -0.6673   -2.0819   -0.0035 H   0  0  0  0  0  0  0  0  0  0  0  0
   -2.6795    5.0672   12.4961 N   0  3  0  0  0  0  0  0  0  0  0  0
   -1.9955    4.9759   11.7358 H   0  0  0  0  0  0  0  0  0  0  0  0
  1 63  1  0  0  0  0
  2  3  1  0  0  0  0
  2 35  1  0  0  0  0
  2 63  2  0  0  0  0
  3  8  2  0  0  0  0
  3  4  1  0  0  0  0
  4  5  2  0  0  0  0
  4 36  1  0  0  0  0
  5  6  1  0  0  0  0
  5 37  1  0  0  0  0
  6  7  2  0  0  0  0
  6 38  1  0  0  0  0
  7  8  1  0  0  0  0
  7  9  1  0  0  0  0
  8 39  1  0  0  0  0
  9 10  1  0  0  0  0
  9 40  1  0  0  0  0
  9 41  1  0  0  0  0
 10 11  1  0  0  0  0
 10 12  1  0  0  0  0
 10 31  1  0  0  0  0
 12 13  1  0  0  0  0
 12 14  1  0  0  0  0
 12 15  1  0  0  0  0
 14 42  1  0  0  0  0
 14 43  1  0  0  0  0
 14 44  1  0  0  0  0
 15 16  1  0  0  0  0
 15 45  1  0  0  0  0
 16 17  2  0  0  0  0
 16 18  1  0  0  0  0
 18 23  2  0  0  0  0
 18 19  1  0  0  0  0
 19 20  2  0  0  0  0
 19 46  1  0  0  0  0
 20 21  1  0  0  0  0
 20 47  1  0  0  0  0
 21 22  2  0  0  0  0
 21 24  1  0  0  0  0
 22 23  1  0  0  0  0
 22 48  1  0  0  0  0
 23 49  1  0  0  0  0
 24 29  2  0  0  0  0
 24 25  1  0  0  0  0
 25 26  2  0  0  0  0
 25 50  1  0  0  0  0
 26 27  1  0  0  0  0
 26 51  1  0  0  0  0
 27 28  2  0  0  0  0
 27 52  1  0  0  0  0
 28 29  1  0  0  0  0
 28 30  1  0  0  0  0
 29 53  1  0  0  0  0
 30 54  1  0  0  0  0
 30 55  1  0  0  0  0
 30 65  1  0  0  0  0
 31 32  2  0  0  0  0
 31 33  1  0  0  0  0
 33 34  1  0  0  0  0
 34 58  1  0  0  0  0
 34 59  1  0  0  0  0
 34 60  1  0  0  0  0
 35 61  1  0  0  0  0
 35 62  1  0  0  0  0
 56 65  1  0  0  0  0
 57 65  1  0  0  0  0
 63 64  1  0  0  0  0
 65 66  1  0  0  0  0
M  CHG  2  63   1  65   1
M  END
$$$$
