ZINC04631127
  -OEChem-08230709403D

 56 59  0     0  0  0  0  0  0999 V2000
   10.7162    0.5409   -0.5177 C   0  0  0  0  0  0  0  0  0  0  0  0
    9.8883    1.4746   -1.1132 C   0  0  0  0  0  0  0  0  0  0  0  0
    8.7506    1.0636   -1.7819 C   0  0  0  0  0  0  0  0  0  0  0  0
    8.4455   -0.2822   -1.8649 C   0  0  0  0  0  0  0  0  0  0  0  0
    9.2762   -1.2171   -1.2738 C   0  0  0  0  0  0  0  0  0  0  0  0
   10.4122   -0.8047   -0.5999 C   0  0  0  0  0  0  0  0  0  0  0  0
    8.8940   -2.9074   -1.3780 Cl  0  0  0  0  0  0  0  0  0  0  0  0
    7.8460    2.0822   -2.4262 C   0  0  0  0  0  0  0  0  0  0  0  0
    6.7793    2.5241   -1.4225 C   0  0  0  0  0  0  0  0  0  0  0  0
    5.8998    3.5144   -2.0488 N   0  0  0  0  0  0  0  0  0  0  0  0
    4.8798    4.0485   -1.3483 C   0  0  0  0  0  0  0  0  0  0  0  0
    4.6347    3.6449   -0.2270 O   0  0  0  0  0  0  0  0  0  0  0  0
    4.0639    5.1183   -1.9387 C   0  0  0  0  0  0  0  0  0  0  0  0
    4.3010    5.7229   -3.1329 C   0  0  0  0  0  0  0  0  0  0  0  0
    3.2938    6.6958   -3.3309 C   0  0  0  0  0  0  0  0  0  0  0  0
    2.4432    6.6434   -2.2097 C   0  0  0  0  0  0  0  0  0  0  0  0
    2.9298    5.6687   -1.3702 N   0  0  0  0  0  0  0  0  0  0  0  0
    2.3466    5.2819   -0.0831 C   0  0  0  0  0  0  0  0  0  0  0  0
    1.2894    4.2313   -0.3061 C   0  0  0  0  0  0  0  0  0  0  0  0
    1.6351    2.8917   -0.2993 C   0  0  0  0  0  0  0  0  0  0  0  0
    0.6704    1.9216   -0.5029 C   0  0  0  0  0  0  0  0  0  0  0  0
   -0.6430    2.2855   -0.7203 C   0  0  0  0  0  0  0  0  0  0  0  0
   -0.9985    3.6338   -0.7226 C   0  0  0  0  0  0  0  0  0  0  0  0
   -0.0212    4.6073   -0.5164 C   0  0  0  0  0  0  0  0  0  0  0  0
   -2.4072    4.0307   -0.9489 C   0  0  0  0  0  0  0  0  0  0  0  0
   -3.6315    5.6506   -1.0951 H   0  0  0  0  0  0  0  0  0  0  0  0
   -3.3704    3.0667   -1.1523 N   0  0  0  0  0  0  0  0  0  0  0  0
    1.3506    7.5022   -2.1358 C   0  0  0  0  0  0  0  0  0  0  0  0
    1.1062    8.3977   -3.1539 C   0  0  0  0  0  0  0  0  0  0  0  0
    1.9390    8.4555   -4.2621 C   0  0  0  0  0  0  0  0  0  0  0  0
    3.0297    7.6147   -4.3613 C   0  0  0  0  0  0  0  0  0  0  0  0
    3.8419    7.6748   -5.4476 O   0  0  0  0  0  0  0  0  0  0  0  0
   11.6028    0.8630    0.0083 H   0  0  0  0  0  0  0  0  0  0  0  0
   10.1286    2.5257   -1.0524 H   0  0  0  0  0  0  0  0  0  0  0  0
    7.5586   -0.6035   -2.3907 H   0  0  0  0  0  0  0  0  0  0  0  0
   11.0613   -1.5342   -0.1386 H   0  0  0  0  0  0  0  0  0  0  0  0
    7.3637    1.6400   -3.2980 H   0  0  0  0  0  0  0  0  0  0  0  0
    8.4341    2.9463   -2.7355 H   0  0  0  0  0  0  0  0  0  0  0  0
    7.2615    2.9663   -0.5507 H   0  0  0  0  0  0  0  0  0  0  0  0
    6.1912    1.6601   -1.1132 H   0  0  0  0  0  0  0  0  0  0  0  0
    6.0517    3.7856   -2.9677 H   0  0  0  0  0  0  0  0  0  0  0  0
    5.1152    5.5030   -3.8074 H   0  0  0  0  0  0  0  0  0  0  0  0
    1.8970    6.1553    0.3892 H   0  0  0  0  0  0  0  0  0  0  0  0
    3.1270    4.8805    0.5634 H   0  0  0  0  0  0  0  0  0  0  0  0
    2.6624    2.6021   -0.1340 H   0  0  0  0  0  0  0  0  0  0  0  0
    0.9462    0.8774   -0.4960 H   0  0  0  0  0  0  0  0  0  0  0  0
   -1.3946    1.5273   -0.8834 H   0  0  0  0  0  0  0  0  0  0  0  0
   -0.2900    5.6533   -0.5215 H   0  0  0  0  0  0  0  0  0  0  0  0
   -3.1257    2.1281   -1.1474 H   0  0  0  0  0  0  0  0  0  0  0  0
   -4.2931    3.3267   -1.3004 H   0  0  0  0  0  0  0  0  0  0  0  0
    0.6942    7.4675   -1.2789 H   0  0  0  0  0  0  0  0  0  0  0  0
    0.2566    9.0611   -3.0891 H   0  0  0  0  0  0  0  0  0  0  0  0
    1.7329    9.1628   -5.0519 H   0  0  0  0  0  0  0  0  0  0  0  0
    3.5756    7.0902   -6.1705 H   0  0  0  0  0  0  0  0  0  0  0  0
   -2.6759    5.3272   -0.9437 N   0  3  0  0  0  0  0  0  0  0  0  0
   -1.9225    6.0070   -0.7874 H   0  0  0  0  0  0  0  0  0  0  0  0
  1  6  2  0  0  0  0
  1  2  1  0  0  0  0
  1 33  1  0  0  0  0
  2  3  2  0  0  0  0
  2 34  1  0  0  0  0
  3  4  1  0  0  0  0
  3  8  1  0  0  0  0
  4  5  2  0  0  0  0
  4 35  1  0  0  0  0
  5  6  1  0  0  0  0
  5  7  1  0  0  0  0
  6 36  1  0  0  0  0
  8  9  1  0  0  0  0
  8 37  1  0  0  0  0
  8 38  1  0  0  0  0
  9 10  1  0  0  0  0
  9 39  1  0  0  0  0
  9 40  1  0  0  0  0
 10 11  1  0  0  0  0
 10 41  1  0  0  0  0
 11 12  2  0  0  0  0
 11 13  1  0  0  0  0
 13 17  1  0  0  0  0
 13 14  2  0  0  0  0
 14 15  1  0  0  0  0
 14 42  1  0  0  0  0
 15 31  2  0  0  0  0
 15 16  1  0  0  0  0
 16 17  1  0  0  0  0
 16 28  2  0  0  0  0
 17 18  1  0  0  0  0
 18 19  1  0  0  0  0
 18 43  1  0  0  0  0
 18 44  1  0  0  0  0
 19 24  2  0  0  0  0
 19 20  1  0  0  0  0
 20 21  2  0  0  0  0
 20 45  1  0  0  0  0
 21 22  1  0  0  0  0
 21 46  1  0  0  0  0
 22 23  2  0  0  0  0
 22 47  1  0  0  0  0
 23 24  1  0  0  0  0
 23 25  1  0  0  0  0
 24 48  1  0  0  0  0
 25 27  1  0  0  0  0
 25 55  2  0  0  0  0
 26 55  1  0  0  0  0
 27 49  1  0  0  0  0
 27 50  1  0  0  0  0
 28 29  1  0  0  0  0
 28 51  1  0  0  0  0
 29 30  2  0  0  0  0
 29 52  1  0  0  0  0
 30 31  1  0  0  0  0
 30 53  1  0  0  0  0
 31 32  1  0  0  0  0
 32 54  1  0  0  0  0
 55 56  1  0  0  0  0
M  CHG  1  55   1
M  END
$$$$
