ZINC03815610
  -OEChem-08230709403D

 50 52  0     1  0  0  0  0  0999 V2000
   -1.7786    8.1158   -1.5372 C   0  0  0  0  0  0  0  0  0  0  0  0
   -1.8447    7.5556   -0.1150 C   0  0  2  0  0  0  0  0  0  0  0  0
   -1.1869    8.1335    0.5341 H   0  0  0  0  0  0  0  0  0  0  0  0
   -1.4040    6.1144   -0.1218 C   0  0  0  0  0  0  0  0  0  0  0  0
   -2.1644    5.2460    0.2510 O   0  0  0  0  0  0  0  0  0  0  0  0
   -0.1651    5.7905   -0.5422 N   0  0  0  0  0  0  0  0  0  0  0  0
    0.2094    4.4449   -0.6468 C   0  0  0  0  0  0  0  0  0  0  0  0
    1.5238    4.0690   -0.4027 C   0  0  0  0  0  0  0  0  0  0  0  0
    1.8930    2.7428   -0.5059 C   0  0  0  0  0  0  0  0  0  0  0  0
    0.9500    1.7846   -0.8538 C   0  0  0  0  0  0  0  0  0  0  0  0
   -0.3633    2.1612   -1.1030 C   0  0  0  0  0  0  0  0  0  0  0  0
   -0.7337    3.4866   -0.9943 C   0  0  0  0  0  0  0  0  0  0  0  0
    1.3247    0.4390   -0.9589 N   0  0  0  0  0  0  0  0  0  0  0  0
    1.8564   -0.2362    0.2225 C   0  0  0  0  0  0  0  0  0  0  0  0
    1.7705   -1.7529    0.0391 C   0  0  0  0  0  0  0  0  0  0  0  0
    2.3189   -2.0920   -1.2401 O   0  0  0  0  0  0  0  0  0  0  0  0
    1.5179   -1.6312   -2.3309 C   0  0  0  0  0  0  0  0  0  0  0  0
    1.1766   -0.1800   -2.1366 C   0  0  0  0  0  0  0  0  0  0  0  0
    0.7562    0.4535   -3.0817 O   0  0  0  0  0  0  0  0  0  0  0  0
   -3.2203    7.6433    0.3810 N   0  0  0  0  0  0  0  0  0  0  0  0
   -3.6607    8.7837    0.9484 C   0  0  0  0  0  0  0  0  0  0  0  0
   -2.9163    9.7398    1.0485 O   0  0  0  0  0  0  0  0  0  0  0  0
   -4.9263    8.8644    1.4047 N   0  0  0  0  0  0  0  0  0  0  0  0
   -5.3514   10.0082    2.0911 C   0  0  0  0  0  0  0  0  0  0  0  0
   -4.4663   10.6972    2.9095 C   0  0  0  0  0  0  0  0  0  0  0  0
   -4.8866   11.8282    3.5815 C   0  0  0  0  0  0  0  0  0  0  0  0
   -6.1918   12.2684    3.4486 C   0  0  0  0  0  0  0  0  0  0  0  0
   -7.0773   11.5805    2.6376 C   0  0  0  0  0  0  0  0  0  0  0  0
   -6.6604   10.4522    1.9590 C   0  0  0  0  0  0  0  0  0  0  0  0
   -6.7191   13.6864    4.3002 Cl  0  0  0  0  0  0  0  0  0  0  0  0
   -2.0973    9.1582   -1.5322 H   0  0  0  0  0  0  0  0  0  0  0  0
   -0.7551    8.0506   -1.9062 H   0  0  0  0  0  0  0  0  0  0  0  0
   -2.4364    7.5379   -2.1863 H   0  0  0  0  0  0  0  0  0  0  0  0
    0.4671    6.4893   -0.7722 H   0  0  0  0  0  0  0  0  0  0  0  0
    2.2572    4.8142   -0.1318 H   0  0  0  0  0  0  0  0  0  0  0  0
    2.9151    2.4505   -0.3157 H   0  0  0  0  0  0  0  0  0  0  0  0
   -1.0957    1.4166   -1.3775 H   0  0  0  0  0  0  0  0  0  0  0  0
   -1.7559    3.7789   -1.1841 H   0  0  0  0  0  0  0  0  0  0  0  0
    2.8975    0.0526    0.3666 H   0  0  0  0  0  0  0  0  0  0  0  0
    1.2766    0.0559    1.0980 H   0  0  0  0  0  0  0  0  0  0  0  0
    2.3404   -2.2492    0.8245 H   0  0  0  0  0  0  0  0  0  0  0  0
    0.7284   -2.0688    0.0882 H   0  0  0  0  0  0  0  0  0  0  0  0
    2.0695   -1.7545   -3.2629 H   0  0  0  0  0  0  0  0  0  0  0  0
    0.5971   -2.2127   -2.3752 H   0  0  0  0  0  0  0  0  0  0  0  0
   -3.8143    6.8805    0.3012 H   0  0  0  0  0  0  0  0  0  0  0  0
   -5.5427    8.1300    1.2575 H   0  0  0  0  0  0  0  0  0  0  0  0
   -3.4488   10.3513    3.0174 H   0  0  0  0  0  0  0  0  0  0  0  0
   -4.1973   12.3673    4.2144 H   0  0  0  0  0  0  0  0  0  0  0  0
   -8.0953   11.9265    2.5350 H   0  0  0  0  0  0  0  0  0  0  0  0
   -7.3518    9.9159    1.3260 H   0  0  0  0  0  0  0  0  0  0  0  0
  1  2  1  0  0  0  0
  1 31  1  0  0  0  0
  1 32  1  0  0  0  0
  1 33  1  0  0  0  0
  2  3  1  0  0  0  0
  2  4  1  0  0  0  0
  2 20  1  0  0  0  0
  4  5  2  0  0  0  0
  4  6  1  0  0  0  0
  6  7  1  0  0  0  0
  6 34  1  0  0  0  0
  7 12  2  0  0  0  0
  7  8  1  0  0  0  0
  8  9  2  0  0  0  0
  8 35  1  0  0  0  0
  9 10  1  0  0  0  0
  9 36  1  0  0  0  0
 10 11  2  0  0  0  0
 10 13  1  0  0  0  0
 11 12  1  0  0  0  0
 11 37  1  0  0  0  0
 12 38  1  0  0  0  0
 13 18  1  0  0  0  0
 13 14  1  0  0  0  0
 14 15  1  0  0  0  0
 14 39  1  0  0  0  0
 14 40  1  0  0  0  0
 15 16  1  0  0  0  0
 15 41  1  0  0  0  0
 15 42  1  0  0  0  0
 16 17  1  0  0  0  0
 17 18  1  0  0  0  0
 17 43  1  0  0  0  0
 17 44  1  0  0  0  0
 18 19  2  0  0  0  0
 20 21  1  0  0  0  0
 20 45  1  0  0  0  0
 21 22  2  0  0  0  0
 21 23  1  0  0  0  0
 23 24  1  0  0  0  0
 23 46  1  0  0  0  0
 24 29  2  0  0  0  0
 24 25  1  0  0  0  0
 25 26  2  0  0  0  0
 25 47  1  0  0  0  0
 26 27  1  0  0  0  0
 26 48  1  0  0  0  0
 27 28  2  0  0  0  0
 27 30  1  0  0  0  0
 28 29  1  0  0  0  0
 28 49  1  0  0  0  0
 29 50  1  0  0  0  0
M  END
$$$$
