ZINC04631158
  -OEChem-08230709403D

 58 61  0     0  0  0  0  0  0999 V2000
    2.2513    1.8280   -2.2625 C   0  0  0  0  0  0  0  0  0  0  0  0
    1.0181    1.2150   -2.0927 C   0  0  0  0  0  0  0  0  0  0  0  0
    0.9252   -0.1542   -1.9726 C   0  0  0  0  0  0  0  0  0  0  0  0
    2.0757   -0.9349   -2.0213 C   0  0  0  0  0  0  0  0  0  0  0  0
    3.3226   -0.3132   -2.1931 C   0  0  0  0  0  0  0  0  0  0  0  0
    3.4018    1.0721   -2.3136 C   0  0  0  0  0  0  0  0  0  0  0  0
    4.3182   -1.4006   -2.2019 C   0  0  0  0  0  0  0  0  0  0  0  0
    3.6229   -2.5625   -2.0399 C   0  0  0  0  0  0  0  0  0  0  0  0
    2.2994   -2.2934   -1.9329 N   0  0  0  0  0  0  0  0  0  0  0  0
    1.2535   -3.3025   -1.7492 C   0  0  0  0  0  0  0  0  0  0  0  0
    0.6723   -3.6732   -3.0893 C   0  0  0  0  0  0  0  0  0  0  0  0
   -0.4159   -2.9779   -3.5860 C   0  0  0  0  0  0  0  0  0  0  0  0
   -0.9518   -3.3091   -4.8174 C   0  0  0  0  0  0  0  0  0  0  0  0
   -0.4100   -4.3433   -5.5533 C   0  0  0  0  0  0  0  0  0  0  0  0
    0.6833   -5.0512   -5.0555 C   0  0  0  0  0  0  0  0  0  0  0  0
    1.2227   -4.7091   -3.8157 C   0  0  0  0  0  0  0  0  0  0  0  0
    1.2691   -6.1624   -5.8400 C   0  0  0  0  0  0  0  0  0  0  0  0
    2.7437   -7.5656   -5.8116 H   0  0  0  0  0  0  0  0  0  0  0  0
    0.7341   -6.4981   -7.0645 N   0  0  0  0  0  0  0  0  0  0  0  0
    5.7727   -1.2602   -2.3543 C   0  0  0  0  0  0  0  0  0  0  0  0
    6.2661   -0.1566   -2.4924 O   0  0  0  0  0  0  0  0  0  0  0  0
    6.5603   -2.3537   -2.3415 N   0  0  0  0  0  0  0  0  0  0  0  0
    8.0106   -2.2137   -2.4935 C   0  0  0  0  0  0  0  0  0  0  0  0
    8.6546   -3.5753   -2.4447 C   0  0  0  0  0  0  0  0  0  0  0  0
    9.0697   -4.0980   -1.2330 C   0  0  0  0  0  0  0  0  0  0  0  0
    9.6556   -5.3462   -1.1813 C   0  0  0  0  0  0  0  0  0  0  0  0
    9.8383   -6.0768   -2.3551 C   0  0  0  0  0  0  0  0  0  0  0  0
    9.4226   -5.5422   -3.5742 C   0  0  0  0  0  0  0  0  0  0  0  0
    8.8336   -4.2950   -3.6125 C   0  0  0  0  0  0  0  0  0  0  0  0
   10.4708   -7.4149   -2.3071 C   0  0  0  0  0  0  0  0  0  0  0  0
   11.0439   -8.9800   -3.4761 H   0  0  0  0  0  0  0  0  0  0  0  0
   10.8803   -7.9404   -1.1011 N   0  0  0  0  0  0  0  0  0  0  0  0
    2.3093    2.9023   -2.3553 H   0  0  0  0  0  0  0  0  0  0  0  0
    0.1219    1.8168   -2.0588 H   0  0  0  0  0  0  0  0  0  0  0  0
   -0.0397   -0.6211   -1.8412 H   0  0  0  0  0  0  0  0  0  0  0  0
    4.3605    1.5515   -2.4462 H   0  0  0  0  0  0  0  0  0  0  0  0
    4.0612   -3.5489   -2.0029 H   0  0  0  0  0  0  0  0  0  0  0  0
    1.6819   -4.1889   -1.2812 H   0  0  0  0  0  0  0  0  0  0  0  0
    0.4672   -2.8989   -1.1113 H   0  0  0  0  0  0  0  0  0  0  0  0
   -0.8459   -2.1704   -3.0120 H   0  0  0  0  0  0  0  0  0  0  0  0
   -1.7984   -2.7597   -5.2021 H   0  0  0  0  0  0  0  0  0  0  0  0
   -0.8322   -4.6040   -6.5126 H   0  0  0  0  0  0  0  0  0  0  0  0
    2.0692   -5.2540   -3.4248 H   0  0  0  0  0  0  0  0  0  0  0  0
   -0.0263   -6.0066   -7.4128 H   0  0  0  0  0  0  0  0  0  0  0  0
    1.1178   -7.2259   -7.5784 H   0  0  0  0  0  0  0  0  0  0  0  0
    6.1669   -3.2335   -2.2314 H   0  0  0  0  0  0  0  0  0  0  0  0
    8.2317   -1.7414   -3.4507 H   0  0  0  0  0  0  0  0  0  0  0  0
    8.4029   -1.5970   -1.6849 H   0  0  0  0  0  0  0  0  0  0  0  0
    8.9310   -3.5297   -0.3251 H   0  0  0  0  0  0  0  0  0  0  0  0
    9.9752   -5.7552   -0.2341 H   0  0  0  0  0  0  0  0  0  0  0  0
    9.5612   -6.1034   -4.4865 H   0  0  0  0  0  0  0  0  0  0  0  0
    8.5112   -3.8799   -4.5561 H   0  0  0  0  0  0  0  0  0  0  0  0
   10.7545   -7.4339   -0.2835 H   0  0  0  0  0  0  0  0  0  0  0  0
   11.2945   -8.8170   -1.0696 H   0  0  0  0  0  0  0  0  0  0  0  0
    2.3053   -6.7933   -5.3097 N   0  3  0  0  0  0  0  0  0  0  0  0
    2.6675   -6.5052   -4.3931 H   0  0  0  0  0  0  0  0  0  0  0  0
   10.6139   -8.0551   -3.4572 N   0  3  0  0  0  0  0  0  0  0  0  0
   10.2921   -7.6207   -4.3301 H   0  0  0  0  0  0  0  0  0  0  0  0
  1  6  2  0  0  0  0
  1  2  1  0  0  0  0
  1 33  1  0  0  0  0
  2  3  2  0  0  0  0
  2 34  1  0  0  0  0
  3  4  1  0  0  0  0
  3 35  1  0  0  0  0
  4  9  1  0  0  0  0
  4  5  2  0  0  0  0
  5  6  1  0  0  0  0
  5  7  1  0  0  0  0
  6 36  1  0  0  0  0
  7  8  2  0  0  0  0
  7 20  1  0  0  0  0
  8  9  1  0  0  0  0
  8 37  1  0  0  0  0
  9 10  1  0  0  0  0
 10 11  1  0  0  0  0
 10 38  1  0  0  0  0
 10 39  1  0  0  0  0
 11 16  2  0  0  0  0
 11 12  1  0  0  0  0
 12 13  2  0  0  0  0
 12 40  1  0  0  0  0
 13 14  1  0  0  0  0
 13 41  1  0  0  0  0
 14 15  2  0  0  0  0
 14 42  1  0  0  0  0
 15 16  1  0  0  0  0
 15 17  1  0  0  0  0
 16 43  1  0  0  0  0
 17 19  1  0  0  0  0
 17 55  2  0  0  0  0
 18 55  1  0  0  0  0
 19 44  1  0  0  0  0
 19 45  1  0  0  0  0
 20 21  2  0  0  0  0
 20 22  1  0  0  0  0
 22 23  1  0  0  0  0
 22 46  1  0  0  0  0
 23 24  1  0  0  0  0
 23 47  1  0  0  0  0
 23 48  1  0  0  0  0
 24 29  2  0  0  0  0
 24 25  1  0  0  0  0
 25 26  2  0  0  0  0
 25 49  1  0  0  0  0
 26 27  1  0  0  0  0
 26 50  1  0  0  0  0
 27 28  2  0  0  0  0
 27 30  1  0  0  0  0
 28 29  1  0  0  0  0
 28 51  1  0  0  0  0
 29 52  1  0  0  0  0
 30 32  1  0  0  0  0
 30 57  2  0  0  0  0
 31 57  1  0  0  0  0
 32 53  1  0  0  0  0
 32 54  1  0  0  0  0
 55 56  1  0  0  0  0
 57 58  1  0  0  0  0
M  CHG  2  55   1  57   1
M  END
$$$$
