ZINC03832283
  -OEChem-08230709403D

 69 73  0     1  0  0  0  0  0999 V2000
    3.4395   12.2291    0.3049 C   0  0  0  0  0  0  0  0  0  0  0  0
    3.1502   12.4095    1.7729 C   0  0  0  0  0  0  0  0  0  0  0  0
    2.0712   11.9541    2.4352 C   0  0  0  0  0  0  0  0  0  0  0  0
    2.1882   12.3285    3.7181 N   0  0  0  0  0  0  0  0  0  0  0  0
    3.3117   12.9913    3.8610 C   0  0  0  0  0  0  0  0  0  0  0  0
    3.9240   13.0574    2.6661 O   0  0  0  0  0  0  0  0  0  0  0  0
    3.8163   13.5729    5.1229 C   0  0  0  0  0  0  0  0  0  0  0  0
    3.0794   13.4384    6.3006 C   0  0  0  0  0  0  0  0  0  0  0  0
    3.5589   13.9786    7.4760 C   0  0  0  0  0  0  0  0  0  0  0  0
    4.7617   14.6622    7.4868 C   0  0  0  0  0  0  0  0  0  0  0  0
    5.4942   14.8040    6.3217 C   0  0  0  0  0  0  0  0  0  0  0  0
    5.0289   14.2637    5.1406 C   0  0  0  0  0  0  0  0  0  0  0  0
    0.9308   11.1688    1.8403 C   0  0  0  0  0  0  0  0  0  0  0  0
    1.2412    9.6732    1.9278 C   0  0  0  0  0  0  0  0  0  0  0  0
    0.1599    8.9285    1.3637 O   0  0  0  0  0  0  0  0  0  0  0  0
    0.2776    7.5746    1.3626 C   0  0  0  0  0  0  0  0  0  0  0  0
   -0.7350    6.7896    0.8305 C   0  0  0  0  0  0  0  0  0  0  0  0
   -0.6128    5.4135    0.8302 C   0  0  0  0  0  0  0  0  0  0  0  0
    0.5175    4.8186    1.3595 C   0  0  0  0  0  0  0  0  0  0  0  0
    1.5255    5.5985    1.8955 C   0  0  0  0  0  0  0  0  0  0  0  0
    1.4107    6.9752    1.8931 C   0  0  0  0  0  0  0  0  0  0  0  0
    0.6481    3.3173    1.3578 C   0  0  0  0  0  0  0  0  0  0  0  0
    1.3281    2.8660    0.0636 C   0  0  2  0  0  0  0  0  0  0  0  0
    0.7758    3.2551   -0.7918 H   0  0  0  0  0  0  0  0  0  0  0  0
    1.3485    1.3602    0.0055 C   0  0  0  0  0  0  0  0  0  0  0  0
    2.4022    0.7723   -0.0571 O   0  0  0  0  0  0  0  0  0  0  0  0
    2.7016    3.3746    0.0305 N   0  0  0  0  0  0  0  0  0  0  0  0
    3.3427    3.5628   -1.1858 C   0  0  0  0  0  0  0  0  0  0  0  0
    2.7293    3.1658   -2.3677 C   0  0  0  0  0  0  0  0  0  0  0  0
    3.3689    3.3536   -3.5755 C   0  0  0  0  0  0  0  0  0  0  0  0
    4.6254    3.9386   -3.6220 C   0  0  0  0  0  0  0  0  0  0  0  0
    5.2501    4.3394   -2.4625 C   0  0  0  0  0  0  0  0  0  0  0  0
    4.6134    4.1613   -1.2296 C   0  0  0  0  0  0  0  0  0  0  0  0
    5.2727    4.5929    0.0143 C   0  0  0  0  0  0  0  0  0  0  0  0
    5.3175    5.7736    0.3003 O   0  0  0  0  0  0  0  0  0  0  0  0
    5.8811    3.5886    0.9169 C   0  0  0  0  0  0  0  0  0  0  0  0
    5.9349    2.2378    0.5574 C   0  0  0  0  0  0  0  0  0  0  0  0
    6.5152    1.3359    1.4278 C   0  0  0  0  0  0  0  0  0  0  0  0
    7.0047    1.7318    2.5860 N   0  0  0  0  0  0  0  0  0  0  0  0
    6.9703    2.9938    2.9657 C   0  0  0  0  0  0  0  0  0  0  0  0
    6.4128    3.9634    2.1553 C   0  0  0  0  0  0  0  0  0  0  0  0
    3.0133   13.0620   -0.2544 H   0  0  0  0  0  0  0  0  0  0  0  0
    4.5177   12.2000    0.1480 H   0  0  0  0  0  0  0  0  0  0  0  0
    2.9967   11.2950   -0.0405 H   0  0  0  0  0  0  0  0  0  0  0  0
    2.1382   12.9089    6.2926 H   0  0  0  0  0  0  0  0  0  0  0  0
    2.9918   13.8714    8.3889 H   0  0  0  0  0  0  0  0  0  0  0  0
    5.1305   15.0867    8.4088 H   0  0  0  0  0  0  0  0  0  0  0  0
    6.4326   15.3385    6.3369 H   0  0  0  0  0  0  0  0  0  0  0  0
    5.6019   14.3747    4.2319 H   0  0  0  0  0  0  0  0  0  0  0  0
    0.8003   11.4523    0.7959 H   0  0  0  0  0  0  0  0  0  0  0  0
    0.0155   11.3828    2.3920 H   0  0  0  0  0  0  0  0  0  0  0  0
    1.3718    9.3897    2.9721 H   0  0  0  0  0  0  0  0  0  0  0  0
    2.1566    9.4592    1.3760 H   0  0  0  0  0  0  0  0  0  0  0  0
   -1.6179    7.2539    0.4166 H   0  0  0  0  0  0  0  0  0  0  0  0
   -1.4007    4.8020    0.4158 H   0  0  0  0  0  0  0  0  0  0  0  0
    2.4053    5.1312    2.3126 H   0  0  0  0  0  0  0  0  0  0  0  0
    2.2003    7.5841    2.3078 H   0  0  0  0  0  0  0  0  0  0  0  0
   -0.3419    2.8663    1.4244 H   0  0  0  0  0  0  0  0  0  0  0  0
    1.2484    3.0038    2.2120 H   0  0  0  0  0  0  0  0  0  0  0  0
    3.1628    3.5798    0.8588 H   0  0  0  0  0  0  0  0  0  0  0  0
    1.7508    2.7094   -2.3408 H   0  0  0  0  0  0  0  0  0  0  0  0
    2.8876    3.0432   -4.4911 H   0  0  0  0  0  0  0  0  0  0  0  0
    5.1165    4.0810   -4.5733 H   0  0  0  0  0  0  0  0  0  0  0  0
    6.2286    4.7944   -2.5049 H   0  0  0  0  0  0  0  0  0  0  0  0
    5.5318    1.9056   -0.3879 H   0  0  0  0  0  0  0  0  0  0  0  0
    6.5646    0.2914    1.1578 H   0  0  0  0  0  0  0  0  0  0  0  0
    7.3834    3.2732    3.9236 H   0  0  0  0  0  0  0  0  0  0  0  0
    6.3874    4.9953    2.4730 H   0  0  0  0  0  0  0  0  0  0  0  0
    0.1961    0.6722    0.0234 O   0  5  0  0  0  0  0  0  0  0  0  0
  1  2  1  0  0  0  0
  1 42  1  0  0  0  0
  1 43  1  0  0  0  0
  1 44  1  0  0  0  0
  2  6  1  0  0  0  0
  2  3  2  0  0  0  0
  3  4  1  0  0  0  0
  3 13  1  0  0  0  0
  4  5  2  0  0  0  0
  5  6  1  0  0  0  0
  5  7  1  0  0  0  0
  7 12  2  0  0  0  0
  7  8  1  0  0  0  0
  8  9  2  0  0  0  0
  8 45  1  0  0  0  0
  9 10  1  0  0  0  0
  9 46  1  0  0  0  0
 10 11  2  0  0  0  0
 10 47  1  0  0  0  0
 11 12  1  0  0  0  0
 11 48  1  0  0  0  0
 12 49  1  0  0  0  0
 13 14  1  0  0  0  0
 13 50  1  0  0  0  0
 13 51  1  0  0  0  0
 14 15  1  0  0  0  0
 14 52  1  0  0  0  0
 14 53  1  0  0  0  0
 15 16  1  0  0  0  0
 16 21  2  0  0  0  0
 16 17  1  0  0  0  0
 17 18  2  0  0  0  0
 17 54  1  0  0  0  0
 18 19  1  0  0  0  0
 18 55  1  0  0  0  0
 19 20  2  0  0  0  0
 19 22  1  0  0  0  0
 20 21  1  0  0  0  0
 20 56  1  0  0  0  0
 21 57  1  0  0  0  0
 22 23  1  0  0  0  0
 22 58  1  0  0  0  0
 22 59  1  0  0  0  0
 23 24  1  0  0  0  0
 23 25  1  0  0  0  0
 23 27  1  0  0  0  0
 25 26  2  0  0  0  0
 25 69  1  0  0  0  0
 27 28  1  0  0  0  0
 27 60  1  0  0  0  0
 28 33  2  0  0  0  0
 28 29  1  0  0  0  0
 29 30  2  0  0  0  0
 29 61  1  0  0  0  0
 30 31  1  0  0  0  0
 30 62  1  0  0  0  0
 31 32  2  0  0  0  0
 31 63  1  0  0  0  0
 32 33  1  0  0  0  0
 32 64  1  0  0  0  0
 33 34  1  0  0  0  0
 34 35  2  0  0  0  0
 34 36  1  0  0  0  0
 36 41  2  0  0  0  0
 36 37  1  0  0  0  0
 37 38  2  0  0  0  0
 37 65  1  0  0  0  0
 38 39  1  0  0  0  0
 38 66  1  0  0  0  0
 39 40  2  0  0  0  0
 40 41  1  0  0  0  0
 40 67  1  0  0  0  0
 41 68  1  0  0  0  0
M  CHG  1  69  -1
M  END
$$$$
