ZINC03832288
  -OEChem-08230709403D

 65 69  0     1  0  0  0  0  0999 V2000
   -3.0275    7.1456   -9.0806 C   0  0  0  0  0  0  0  0  0  0  0  0
   -1.6641    6.8111   -8.6617 N   0  0  0  0  0  0  0  0  0  0  0  0
   -1.3910    5.5247   -8.0159 C   0  0  0  0  0  0  0  0  0  0  0  0
   -1.5464    5.6715   -6.5009 C   0  0  0  0  0  0  0  0  0  0  0  0
   -2.9086    5.9697   -6.1885 O   0  0  0  0  0  0  0  0  0  0  0  0
   -3.2191    6.1323   -4.8755 C   0  0  0  0  0  0  0  0  0  0  0  0
   -4.5227    6.4235   -4.5007 C   0  0  0  0  0  0  0  0  0  0  0  0
   -4.8357    6.5887   -3.1653 C   0  0  0  0  0  0  0  0  0  0  0  0
   -3.8511    6.4637   -2.2027 C   0  0  0  0  0  0  0  0  0  0  0  0
   -2.5500    6.1791   -2.5741 C   0  0  0  0  0  0  0  0  0  0  0  0
   -2.2329    6.0078   -3.9077 C   0  0  0  0  0  0  0  0  0  0  0  0
   -4.1954    6.6440   -0.7467 C   0  0  0  0  0  0  0  0  0  0  0  0
   -4.5960    5.2949   -0.1465 C   0  0  2  0  0  0  0  0  0  0  0  0
   -5.4054    4.8618   -0.7341 H   0  0  0  0  0  0  0  0  0  0  0  0
   -5.0575    5.4943    1.2742 C   0  0  0  0  0  0  0  0  0  0  0  0
   -4.4824    4.9386    2.1799 O   0  0  0  0  0  0  0  0  0  0  0  0
   -3.4429    4.3913   -0.1631 N   0  0  0  0  0  0  0  0  0  0  0  0
   -3.6383    3.0161   -0.1743 C   0  0  0  0  0  0  0  0  0  0  0  0
   -4.9192    2.4937   -0.3041 C   0  0  0  0  0  0  0  0  0  0  0  0
   -5.1112    1.1274   -0.3091 C   0  0  0  0  0  0  0  0  0  0  0  0
   -4.0313    0.2663   -0.1906 C   0  0  0  0  0  0  0  0  0  0  0  0
   -2.7535    0.7653   -0.0662 C   0  0  0  0  0  0  0  0  0  0  0  0
   -2.5421    2.1467   -0.0593 C   0  0  0  0  0  0  0  0  0  0  0  0
   -1.1763    2.6879    0.0740 C   0  0  0  0  0  0  0  0  0  0  0  0
   -1.0064    3.8868    0.2029 O   0  0  0  0  0  0  0  0  0  0  0  0
   -0.0245    1.7831    0.0513 C   0  0  0  0  0  0  0  0  0  0  0  0
    1.3292    2.0896    0.0642 C   0  0  0  0  0  0  0  0  0  0  0  0
    2.2079    1.0367    0.0308 C   0  0  0  0  0  0  0  0  0  0  0  0
    1.7220   -0.2325   -0.0124 C   0  0  0  0  0  0  0  0  0  0  0  0
    0.0041    0.0003   -0.0081 S   0  0  0  0  0  0  0  0  0  0  0  0
   -0.6396    7.7054   -8.8749 C   0  0  0  0  0  0  0  0  0  0  0  0
    0.6091    7.5098   -8.5360 N   0  0  0  0  0  0  0  0  0  0  0  0
    1.3369    8.6001   -8.9035 C   0  0  0  0  0  0  0  0  0  0  0  0
    2.6866    8.9383   -8.7969 C   0  0  0  0  0  0  0  0  0  0  0  0
    3.1257   10.1547   -9.2718 C   0  0  0  0  0  0  0  0  0  0  0  0
    2.2350   11.0433   -9.8541 C   0  0  0  0  0  0  0  0  0  0  0  0
    0.8975   10.7211   -9.9658 C   0  0  0  0  0  0  0  0  0  0  0  0
    0.4390    9.5021   -9.4935 C   0  0  0  0  0  0  0  0  0  0  0  0
   -0.7769    8.9098   -9.4566 O   0  0  0  0  0  0  0  0  0  0  0  0
   -3.5441    7.6521   -8.2653 H   0  0  0  0  0  0  0  0  0  0  0  0
   -2.9897    7.8018   -9.9501 H   0  0  0  0  0  0  0  0  0  0  0  0
   -3.5630    6.2318   -9.3379 H   0  0  0  0  0  0  0  0  0  0  0  0
   -0.3734    5.2104   -8.2480 H   0  0  0  0  0  0  0  0  0  0  0  0
   -2.0947    4.7774   -8.3827 H   0  0  0  0  0  0  0  0  0  0  0  0
   -0.9070    6.4800   -6.1467 H   0  0  0  0  0  0  0  0  0  0  0  0
   -1.2576    4.7400   -6.0142 H   0  0  0  0  0  0  0  0  0  0  0  0
   -5.2921    6.5212   -5.2522 H   0  0  0  0  0  0  0  0  0  0  0  0
   -5.8503    6.8154   -2.8730 H   0  0  0  0  0  0  0  0  0  0  0  0
   -1.7817    6.0867   -1.8207 H   0  0  0  0  0  0  0  0  0  0  0  0
   -1.2174    5.7808   -4.1970 H   0  0  0  0  0  0  0  0  0  0  0  0
   -5.0257    7.3440   -0.6536 H   0  0  0  0  0  0  0  0  0  0  0  0
   -3.3287    7.0356   -0.2141 H   0  0  0  0  0  0  0  0  0  0  0  0
   -2.5430    4.7534   -0.1662 H   0  0  0  0  0  0  0  0  0  0  0  0
   -5.7658    3.1578   -0.3966 H   0  0  0  0  0  0  0  0  0  0  0  0
   -6.1092    0.7262   -0.4065 H   0  0  0  0  0  0  0  0  0  0  0  0
   -4.1928   -0.8016   -0.1953 H   0  0  0  0  0  0  0  0  0  0  0  0
   -1.9158    0.0898    0.0255 H   0  0  0  0  0  0  0  0  0  0  0  0
    1.6755    3.1120    0.0986 H   0  0  0  0  0  0  0  0  0  0  0  0
    3.2732    1.2138    0.0392 H   0  0  0  0  0  0  0  0  0  0  0  0
    2.2730   -1.1609   -0.0423 H   0  0  0  0  0  0  0  0  0  0  0  0
    3.3841    8.2491   -8.3443 H   0  0  0  0  0  0  0  0  0  0  0  0
    4.1701   10.4175   -9.1902 H   0  0  0  0  0  0  0  0  0  0  0  0
    2.5901   11.9943  -10.2227 H   0  0  0  0  0  0  0  0  0  0  0  0
    0.2093   11.4185  -10.4203 H   0  0  0  0  0  0  0  0  0  0  0  0
   -6.1077    6.2891    1.5334 O   0  5  0  0  0  0  0  0  0  0  0  0
  1  2  1  0  0  0  0
  1 40  1  0  0  0  0
  1 41  1  0  0  0  0
  1 42  1  0  0  0  0
  2  3  1  0  0  0  0
  2 31  1  0  0  0  0
  3  4  1  0  0  0  0
  3 43  1  0  0  0  0
  3 44  1  0  0  0  0
  4  5  1  0  0  0  0
  4 45  1  0  0  0  0
  4 46  1  0  0  0  0
  5  6  1  0  0  0  0
  6 11  2  0  0  0  0
  6  7  1  0  0  0  0
  7  8  2  0  0  0  0
  7 47  1  0  0  0  0
  8  9  1  0  0  0  0
  8 48  1  0  0  0  0
  9 10  2  0  0  0  0
  9 12  1  0  0  0  0
 10 11  1  0  0  0  0
 10 49  1  0  0  0  0
 11 50  1  0  0  0  0
 12 13  1  0  0  0  0
 12 51  1  0  0  0  0
 12 52  1  0  0  0  0
 13 14  1  0  0  0  0
 13 15  1  0  0  0  0
 13 17  1  0  0  0  0
 15 16  2  0  0  0  0
 15 65  1  0  0  0  0
 17 18  1  0  0  0  0
 17 53  1  0  0  0  0
 18 23  2  0  0  0  0
 18 19  1  0  0  0  0
 19 20  2  0  0  0  0
 19 54  1  0  0  0  0
 20 21  1  0  0  0  0
 20 55  1  0  0  0  0
 21 22  2  0  0  0  0
 21 56  1  0  0  0  0
 22 23  1  0  0  0  0
 22 57  1  0  0  0  0
 23 24  1  0  0  0  0
 24 25  2  0  0  0  0
 24 26  1  0  0  0  0
 26 30  1  0  0  0  0
 26 27  2  0  0  0  0
 27 28  1  0  0  0  0
 27 58  1  0  0  0  0
 28 29  2  0  0  0  0
 28 59  1  0  0  0  0
 29 30  1  0  0  0  0
 29 60  1  0  0  0  0
 31 39  1  0  0  0  0
 31 32  2  0  0  0  0
 32 33  1  0  0  0  0
 33 38  2  0  0  0  0
 33 34  1  0  0  0  0
 34 35  2  0  0  0  0
 34 61  1  0  0  0  0
 35 36  1  0  0  0  0
 35 62  1  0  0  0  0
 36 37  2  0  0  0  0
 36 63  1  0  0  0  0
 37 38  1  0  0  0  0
 37 64  1  0  0  0  0
 38 39  1  0  0  0  0
M  CHG  1  65  -1
M  END
$$$$
