ZINC03834053
  -OEChem-08230709403D

 65 69  0     1  0  0  0  0  0999 V2000
    2.3636   -0.1890   -8.8794 C   0  0  0  0  0  0  0  0  0  0  0  0
    1.5588   -1.3488   -8.4877 N   0  0  0  0  0  0  0  0  0  0  0  0
    0.2644   -1.1538   -7.8300 C   0  0  0  0  0  0  0  0  0  0  0  0
    0.4650   -1.1032   -6.3141 C   0  0  0  0  0  0  0  0  0  0  0  0
    1.2391    0.0489   -5.9742 O   0  0  0  0  0  0  0  0  0  0  0  0
    1.5099    0.2436   -4.6568 C   0  0  0  0  0  0  0  0  0  0  0  0
    2.2564    1.3420   -4.2559 C   0  0  0  0  0  0  0  0  0  0  0  0
    2.5307    1.5375   -2.9161 C   0  0  0  0  0  0  0  0  0  0  0  0
    2.0614    0.6398   -1.9750 C   0  0  0  0  0  0  0  0  0  0  0  0
    1.3219   -0.4588   -2.3726 C   0  0  0  0  0  0  0  0  0  0  0  0
    1.0405   -0.6559   -3.7106 C   0  0  0  0  0  0  0  0  0  0  0  0
    2.3616    0.8557   -0.5141 C   0  0  0  0  0  0  0  0  0  0  0  0
    1.2531    1.7023    0.1147 C   0  0  2  0  0  0  0  0  0  0  0  0
    1.1406    2.6293   -0.4476 H   0  0  0  0  0  0  0  0  0  0  0  0
    1.6135    2.0215    1.5427 C   0  0  0  0  0  0  0  0  0  0  0  0
    0.8914    1.6629    2.4426 O   0  0  0  0  0  0  0  0  0  0  0  0
   -0.0076    0.9566    0.0842 N   0  0  0  0  0  0  0  0  0  0  0  0
   -1.2192    1.6389    0.0916 C   0  0  0  0  0  0  0  0  0  0  0  0
   -1.2745    3.0162    0.1324 C   0  0  0  0  0  0  0  0  0  0  0  0
   -2.4837    3.6314    0.1379 C   0  0  0  0  0  0  0  0  0  0  0  0
   -3.6079    2.3134    0.0862 S   0  0  0  0  0  0  0  0  0  0  0  0
   -2.4426    0.9631    0.0522 C   0  0  0  0  0  0  0  0  0  0  0  0
   -2.6911   -0.4262    0.0003 C   0  0  0  0  0  0  0  0  0  0  0  0
   -1.7647   -1.2061   -0.1356 O   0  0  0  0  0  0  0  0  0  0  0  0
   -4.0764   -0.9348    0.1109 C   0  0  0  0  0  0  0  0  0  0  0  0
   -4.4066   -2.1872   -0.4087 C   0  0  0  0  0  0  0  0  0  0  0  0
   -5.6988   -2.6577   -0.2979 C   0  0  0  0  0  0  0  0  0  0  0  0
   -6.6686   -1.8864    0.3177 C   0  0  0  0  0  0  0  0  0  0  0  0
   -6.3489   -0.6416    0.8302 C   0  0  0  0  0  0  0  0  0  0  0  0
   -5.0593   -0.1617    0.7303 C   0  0  0  0  0  0  0  0  0  0  0  0
    2.0189   -2.6219   -8.7377 C   0  0  0  0  0  0  0  0  0  0  0  0
    1.3849   -3.7231   -8.4253 N   0  0  0  0  0  0  0  0  0  0  0  0
    2.1347   -4.7868   -8.8254 C   0  0  0  0  0  0  0  0  0  0  0  0
    1.9602   -6.1695   -8.7552 C   0  0  0  0  0  0  0  0  0  0  0  0
    2.9317   -7.0072   -9.2577 C   0  0  0  0  0  0  0  0  0  0  0  0
    4.0802   -6.4843   -9.8319 C   0  0  0  0  0  0  0  0  0  0  0  0
    4.2652   -5.1185   -9.9076 C   0  0  0  0  0  0  0  0  0  0  0  0
    3.2983   -4.2619   -9.4072 C   0  0  0  0  0  0  0  0  0  0  0  0
    3.1881   -2.9154   -9.3333 O   0  0  0  0  0  0  0  0  0  0  0  0
    3.0271    0.0863   -8.0596 H   0  0  0  0  0  0  0  0  0  0  0  0
    2.9569   -0.4388   -9.7589 H   0  0  0  0  0  0  0  0  0  0  0  0
    1.7054    0.6484   -9.1110 H   0  0  0  0  0  0  0  0  0  0  0  0
   -0.3992   -1.9813   -8.0813 H   0  0  0  0  0  0  0  0  0  0  0  0
   -0.1782   -0.2173   -8.1694 H   0  0  0  0  0  0  0  0  0  0  0  0
    0.9879   -2.0018   -5.9866 H   0  0  0  0  0  0  0  0  0  0  0  0
   -0.5054   -1.0474   -5.8208 H   0  0  0  0  0  0  0  0  0  0  0  0
    2.6226    2.0439   -4.9905 H   0  0  0  0  0  0  0  0  0  0  0  0
    3.1118    2.3925   -2.6034 H   0  0  0  0  0  0  0  0  0  0  0  0
    0.9605   -1.1611   -1.6361 H   0  0  0  0  0  0  0  0  0  0  0  0
    0.4594   -1.5120   -4.0203 H   0  0  0  0  0  0  0  0  0  0  0  0
    3.3158    1.3726   -0.4118 H   0  0  0  0  0  0  0  0  0  0  0  0
    2.4143   -0.1080   -0.0077 H   0  0  0  0  0  0  0  0  0  0  0  0
    0.0029   -0.0128    0.0548 H   0  0  0  0  0  0  0  0  0  0  0  0
   -0.3654    3.5986    0.1601 H   0  0  0  0  0  0  0  0  0  0  0  0
   -2.6953    4.6901    0.1675 H   0  0  0  0  0  0  0  0  0  0  0  0
   -3.6515   -2.7883   -0.8933 H   0  0  0  0  0  0  0  0  0  0  0  0
   -5.9549   -3.6283   -0.6963 H   0  0  0  0  0  0  0  0  0  0  0  0
   -7.6797   -2.2574    0.3981 H   0  0  0  0  0  0  0  0  0  0  0  0
   -7.1105   -0.0443    1.3093 H   0  0  0  0  0  0  0  0  0  0  0  0
   -4.8111    0.8104    1.1301 H   0  0  0  0  0  0  0  0  0  0  0  0
    1.0670   -6.5813   -8.3091 H   0  0  0  0  0  0  0  0  0  0  0  0
    2.7977   -8.0775   -9.2043 H   0  0  0  0  0  0  0  0  0  0  0  0
    4.8355   -7.1502  -10.2223 H   0  0  0  0  0  0  0  0  0  0  0  0
    5.1625   -4.7183  -10.3559 H   0  0  0  0  0  0  0  0  0  0  0  0
    2.7367    2.7041    1.8149 O   0  5  0  0  0  0  0  0  0  0  0  0
  1  2  1  0  0  0  0
  1 40  1  0  0  0  0
  1 41  1  0  0  0  0
  1 42  1  0  0  0  0
  2  3  1  0  0  0  0
  2 31  1  0  0  0  0
  3  4  1  0  0  0  0
  3 43  1  0  0  0  0
  3 44  1  0  0  0  0
  4  5  1  0  0  0  0
  4 45  1  0  0  0  0
  4 46  1  0  0  0  0
  5  6  1  0  0  0  0
  6 11  2  0  0  0  0
  6  7  1  0  0  0  0
  7  8  2  0  0  0  0
  7 47  1  0  0  0  0
  8  9  1  0  0  0  0
  8 48  1  0  0  0  0
  9 10  2  0  0  0  0
  9 12  1  0  0  0  0
 10 11  1  0  0  0  0
 10 49  1  0  0  0  0
 11 50  1  0  0  0  0
 12 13  1  0  0  0  0
 12 51  1  0  0  0  0
 12 52  1  0  0  0  0
 13 14  1  0  0  0  0
 13 15  1  0  0  0  0
 13 17  1  0  0  0  0
 15 16  2  0  0  0  0
 15 65  1  0  0  0  0
 17 18  1  0  0  0  0
 17 53  1  0  0  0  0
 18 22  2  0  0  0  0
 18 19  1  0  0  0  0
 19 20  2  0  0  0  0
 19 54  1  0  0  0  0
 20 21  1  0  0  0  0
 20 55  1  0  0  0  0
 21 22  1  0  0  0  0
 22 23  1  0  0  0  0
 23 24  2  0  0  0  0
 23 25  1  0  0  0  0
 25 30  2  0  0  0  0
 25 26  1  0  0  0  0
 26 27  2  0  0  0  0
 26 56  1  0  0  0  0
 27 28  1  0  0  0  0
 27 57  1  0  0  0  0
 28 29  2  0  0  0  0
 28 58  1  0  0  0  0
 29 30  1  0  0  0  0
 29 59  1  0  0  0  0
 30 60  1  0  0  0  0
 31 39  1  0  0  0  0
 31 32  2  0  0  0  0
 32 33  1  0  0  0  0
 33 38  2  0  0  0  0
 33 34  1  0  0  0  0
 34 35  2  0  0  0  0
 34 61  1  0  0  0  0
 35 36  1  0  0  0  0
 35 62  1  0  0  0  0
 36 37  2  0  0  0  0
 36 63  1  0  0  0  0
 37 38  1  0  0  0  0
 37 64  1  0  0  0  0
 38 39  1  0  0  0  0
M  CHG  1  65  -1
M  END
$$$$
