ZINC04137617
  -OEChem-08230709403D

 80 83  0     1  0  0  0  0  0999 V2000
   -4.3701    3.8926    0.0588 C   0  0  0  0  0  0  0  0  0  0  0  0
   -3.3684    2.7694   -0.0195 C   0  0  0  0  0  0  0  0  0  0  0  0
   -3.5733    1.4344   -0.1191 C   0  0  0  0  0  0  0  0  0  0  0  0
   -2.5218    0.6389   -0.1787 N   0  0  0  0  0  0  0  0  0  0  0  0
   -1.2956    1.1238   -0.1322 C   0  0  0  0  0  0  0  0  0  0  0  0
   -1.5827    2.8318   -0.0072 S   0  0  0  0  0  0  0  0  0  0  0  0
   -0.0882    0.4447   -0.1776 N   0  0  0  0  0  0  0  0  0  0  0  0
    1.1729    1.1882   -0.1233 C   0  0  0  0  0  0  0  0  0  0  0  0
    2.3460    0.2087   -0.1968 C   0  0  0  0  0  0  0  0  0  0  0  0
    3.6631    0.9852   -0.1400 C   0  0  0  0  0  0  0  0  0  0  0  0
    6.0600    0.7581   -0.3973 C   0  0  0  0  0  0  0  0  0  0  0  0
    4.8365   -0.8107    0.9827 C   0  0  0  0  0  0  0  0  0  0  0  0
   -4.9701    0.8705   -0.1673 C   0  0  0  0  0  0  0  0  0  0  0  0
   -5.4360    0.7860   -1.6221 C   0  0  0  0  0  0  0  0  0  0  0  0
   -6.7604    0.2513   -1.6679 O   0  0  0  0  0  0  0  0  0  0  0  0
   -7.3266    0.1097   -2.8952 C   0  0  0  0  0  0  0  0  0  0  0  0
   -6.6240    0.4831   -4.0317 C   0  0  0  0  0  0  0  0  0  0  0  0
   -7.1998    0.3332   -5.2785 C   0  0  0  0  0  0  0  0  0  0  0  0
   -8.4790   -0.1787   -5.3935 C   0  0  0  0  0  0  0  0  0  0  0  0
   -9.1834   -0.5462   -4.2620 C   0  0  0  0  0  0  0  0  0  0  0  0
   -8.6102   -0.4032   -3.0132 C   0  0  0  0  0  0  0  0  0  0  0  0
   -9.1068   -0.3358   -6.7545 C   0  0  0  0  0  0  0  0  0  0  0  0
   -9.8609    0.9446   -7.1192 C   0  0  2  0  0  0  0  0  0  0  0  0
  -10.5792    1.1794   -6.3337 H   0  0  0  0  0  0  0  0  0  0  0  0
  -10.5898    0.7443   -8.4229 C   0  0  0  0  0  0  0  0  0  0  0  0
  -10.3398    1.4519   -9.3697 O   0  0  0  0  0  0  0  0  0  0  0  0
   -8.9090    2.0496   -7.2567 N   0  0  0  0  0  0  0  0  0  0  0  0
   -9.3324    3.3580   -7.0678 C   0  0  0  0  0  0  0  0  0  0  0  0
  -10.6785    3.6337   -6.8612 C   0  0  0  0  0  0  0  0  0  0  0  0
  -11.0960    4.9343   -6.6680 C   0  0  0  0  0  0  0  0  0  0  0  0
  -10.1815    5.9764   -6.6893 C   0  0  0  0  0  0  0  0  0  0  0  0
   -8.8440    5.7246   -6.8981 C   0  0  0  0  0  0  0  0  0  0  0  0
   -8.4031    4.4113   -7.0900 C   0  0  0  0  0  0  0  0  0  0  0  0
   -6.9738    4.1344   -7.3144 C   0  0  0  0  0  0  0  0  0  0  0  0
   -6.1932    4.1735   -6.3827 O   0  0  0  0  0  0  0  0  0  0  0  0
   -6.4883    3.8089   -8.6721 C   0  0  0  0  0  0  0  0  0  0  0  0
   -7.3598    3.8686   -9.7616 C   0  0  0  0  0  0  0  0  0  0  0  0
   -6.8987    3.5692  -11.0266 C   0  0  0  0  0  0  0  0  0  0  0  0
   -5.5787    3.1993  -11.2158 C   0  0  0  0  0  0  0  0  0  0  0  0
   -4.7112    3.1326  -10.1398 C   0  0  0  0  0  0  0  0  0  0  0  0
   -5.1575    3.4349   -8.8702 C   0  0  0  0  0  0  0  0  0  0  0  0
   -3.8438    4.8444    0.1316 H   0  0  0  0  0  0  0  0  0  0  0  0
   -4.9913    3.8884   -0.8368 H   0  0  0  0  0  0  0  0  0  0  0  0
   -4.9996    3.7573    0.9383 H   0  0  0  0  0  0  0  0  0  0  0  0
   -0.0782   -0.5226   -0.2494 H   0  0  0  0  0  0  0  0  0  0  0  0
    1.2236    1.8795   -0.9645 H   0  0  0  0  0  0  0  0  0  0  0  0
    1.2248    1.7478    0.8106 H   0  0  0  0  0  0  0  0  0  0  0  0
    2.2953   -0.4827    0.6444 H   0  0  0  0  0  0  0  0  0  0  0  0
    2.2941   -0.3509   -1.1307 H   0  0  0  0  0  0  0  0  0  0  0  0
    3.7138    1.6766   -0.9812 H   0  0  0  0  0  0  0  0  0  0  0  0
    3.7150    1.5449    0.7939 H   0  0  0  0  0  0  0  0  0  0  0  0
    6.2226    1.4360    0.4406 H   0  0  0  0  0  0  0  0  0  0  0  0
    6.8770    0.0383   -0.4462 H   0  0  0  0  0  0  0  0  0  0  0  0
    6.0230    1.3294   -1.3249 H   0  0  0  0  0  0  0  0  0  0  0  0
    3.9100   -1.3800    1.0583 H   0  0  0  0  0  0  0  0  0  0  0  0
    5.6794   -1.4973    0.9045 H   0  0  0  0  0  0  0  0  0  0  0  0
    4.9548   -0.1897    1.8706 H   0  0  0  0  0  0  0  0  0  0  0  0
   -4.9750   -0.1260    0.2743 H   0  0  0  0  0  0  0  0  0  0  0  0
   -5.6434    1.5195    0.3927 H   0  0  0  0  0  0  0  0  0  0  0  0
   -5.4310    1.7825   -2.0637 H   0  0  0  0  0  0  0  0  0  0  0  0
   -4.7627    0.1371   -2.1822 H   0  0  0  0  0  0  0  0  0  0  0  0
   -5.6263    0.8868   -3.9421 H   0  0  0  0  0  0  0  0  0  0  0  0
   -6.6516    0.6195   -6.1639 H   0  0  0  0  0  0  0  0  0  0  0  0
  -10.1826   -0.9457   -4.3544 H   0  0  0  0  0  0  0  0  0  0  0  0
   -9.1607   -0.6907   -2.1297 H   0  0  0  0  0  0  0  0  0  0  0  0
   -8.3284   -0.5222   -7.4944 H   0  0  0  0  0  0  0  0  0  0  0  0
   -9.8021   -1.1751   -6.7392 H   0  0  0  0  0  0  0  0  0  0  0  0
   -7.9828    1.8670   -7.4797 H   0  0  0  0  0  0  0  0  0  0  0  0
  -11.3982    2.8285   -6.8475 H   0  0  0  0  0  0  0  0  0  0  0  0
  -12.1428    5.1427   -6.5030 H   0  0  0  0  0  0  0  0  0  0  0  0
  -10.5202    6.9912   -6.5417 H   0  0  0  0  0  0  0  0  0  0  0  0
   -8.1362    6.5402   -6.9134 H   0  0  0  0  0  0  0  0  0  0  0  0
   -8.3914    4.1525   -9.6146 H   0  0  0  0  0  0  0  0  0  0  0  0
   -7.5705    3.6189  -11.8708 H   0  0  0  0  0  0  0  0  0  0  0  0
   -5.2241    2.9612  -12.2078 H   0  0  0  0  0  0  0  0  0  0  0  0
   -3.6821    2.8435  -10.2945 H   0  0  0  0  0  0  0  0  0  0  0  0
   -4.4795    3.3821   -8.0312 H   0  0  0  0  0  0  0  0  0  0  0  0
    4.7854    0.0278   -0.2334 N   0  3  0  0  0  0  0  0  0  0  0  0
    4.6404   -0.5774   -1.0500 H   0  0  0  0  0  0  0  0  0  0  0  0
  -11.5168   -0.2204   -8.5322 O   0  5  0  0  0  0  0  0  0  0  0  0
  1  2  1  0  0  0  0
  1 42  1  0  0  0  0
  1 43  1  0  0  0  0
  1 44  1  0  0  0  0
  2  6  1  0  0  0  0
  2  3  2  0  0  0  0
  3  4  1  0  0  0  0
  3 13  1  0  0  0  0
  4  5  2  0  0  0  0
  5  6  1  0  0  0  0
  5  7  1  0  0  0  0
  7  8  1  0  0  0  0
  7 45  1  0  0  0  0
  8  9  1  0  0  0  0
  8 46  1  0  0  0  0
  8 47  1  0  0  0  0
  9 10  1  0  0  0  0
  9 48  1  0  0  0  0
  9 49  1  0  0  0  0
 10 50  1  0  0  0  0
 10 51  1  0  0  0  0
 10 78  1  0  0  0  0
 11 52  1  0  0  0  0
 11 53  1  0  0  0  0
 11 54  1  0  0  0  0
 11 78  1  0  0  0  0
 12 55  1  0  0  0  0
 12 56  1  0  0  0  0
 12 57  1  0  0  0  0
 12 78  1  0  0  0  0
 13 14  1  0  0  0  0
 13 58  1  0  0  0  0
 13 59  1  0  0  0  0
 14 15  1  0  0  0  0
 14 60  1  0  0  0  0
 14 61  1  0  0  0  0
 15 16  1  0  0  0  0
 16 21  2  0  0  0  0
 16 17  1  0  0  0  0
 17 18  2  0  0  0  0
 17 62  1  0  0  0  0
 18 19  1  0  0  0  0
 18 63  1  0  0  0  0
 19 20  2  0  0  0  0
 19 22  1  0  0  0  0
 20 21  1  0  0  0  0
 20 64  1  0  0  0  0
 21 65  1  0  0  0  0
 22 23  1  0  0  0  0
 22 66  1  0  0  0  0
 22 67  1  0  0  0  0
 23 24  1  0  0  0  0
 23 25  1  0  0  0  0
 23 27  1  0  0  0  0
 25 26  2  0  0  0  0
 25 80  1  0  0  0  0
 27 28  1  0  0  0  0
 27 68  1  0  0  0  0
 28 33  2  0  0  0  0
 28 29  1  0  0  0  0
 29 30  2  0  0  0  0
 29 69  1  0  0  0  0
 30 31  1  0  0  0  0
 30 70  1  0  0  0  0
 31 32  2  0  0  0  0
 31 71  1  0  0  0  0
 32 33  1  0  0  0  0
 32 72  1  0  0  0  0
 33 34  1  0  0  0  0
 34 35  2  0  0  0  0
 34 36  1  0  0  0  0
 36 41  2  0  0  0  0
 36 37  1  0  0  0  0
 37 38  2  0  0  0  0
 37 73  1  0  0  0  0
 38 39  1  0  0  0  0
 38 74  1  0  0  0  0
 39 40  2  0  0  0  0
 39 75  1  0  0  0  0
 40 41  1  0  0  0  0
 40 76  1  0  0  0  0
 41 77  1  0  0  0  0
 78 79  1  0  0  0  0
M  CHG  2  78   1  80  -1
M  END
$$$$
