ZINC01554391
  -OEChem-08230709403D

 60 63  0     0  0  0  0  0  0999 V2000
    8.4934   -4.8040    1.3326 C   0  0  0  0  0  0  0  0  0  0  0  0
    7.0816   -5.3934    1.3435 C   0  0  0  0  0  0  0  0  0  0  0  0
    6.5965   -5.5821   -0.0952 C   0  0  0  0  0  0  0  0  0  0  0  0
    5.2059   -6.1627   -0.0845 C   0  0  0  0  0  0  0  0  0  0  0  0
    4.1057   -5.3244   -0.0689 C   0  0  0  0  0  0  0  0  0  0  0  0
    2.8170   -5.8492   -0.0536 C   0  0  0  0  0  0  0  0  0  0  0  0
    2.6245   -7.2130   -0.0653 C   0  0  0  0  0  0  0  0  0  0  0  0
    3.7255   -8.0648   -0.0809 C   0  0  0  0  0  0  0  0  0  0  0  0
    5.0275   -7.5399   -0.0906 C   0  0  0  0  0  0  0  0  0  0  0  0
    5.8848   -8.5811   -0.1054 O   0  0  0  0  0  0  0  0  0  0  0  0
    5.2256   -9.7520   -0.1060 C   0  0  0  0  0  0  0  0  0  0  0  0
    3.8915   -9.5303   -0.0914 C   0  0  0  0  0  0  0  0  0  0  0  0
    2.8163  -10.5511   -0.0870 C   0  0  0  0  0  0  0  0  0  0  0  0
    1.7876  -10.4797    0.8511 C   0  0  0  0  0  0  0  0  0  0  0  0
    0.7869  -11.4299    0.8474 C   0  0  0  0  0  0  0  0  0  0  0  0
    0.8090  -12.4579   -0.0780 C   0  0  0  0  0  0  0  0  0  0  0  0
    1.8301  -12.5369   -1.0079 C   0  0  0  0  0  0  0  0  0  0  0  0
    2.8333  -11.5893   -1.0171 C   0  0  0  0  0  0  0  0  0  0  0  0
    4.2849   -3.9770   -0.0630 O   0  0  0  0  0  0  0  0  0  0  0  0
    3.1084   -3.1661   -0.0468 C   0  0  0  0  0  0  0  0  0  0  0  0
    3.5071   -1.6890   -0.0423 C   0  0  0  0  0  0  0  0  0  0  0  0
    2.2474   -0.8207   -0.0250 C   0  0  0  0  0  0  0  0  0  0  0  0
    2.7201    0.9306   -0.0196 S   0  0  0  0  0  0  0  0  0  0  0  0
    1.1807    1.7876    0.0004 C   0  0  0  0  0  0  0  0  0  0  0  0
   -0.0126    1.0758    0.0080 C   0  0  0  0  0  0  0  0  0  0  0  0
   -1.2173    1.7507    0.0173 C   0  0  0  0  0  0  0  0  0  0  0  0
   -1.2376    3.1336    0.0308 C   0  0  0  0  0  0  0  0  0  0  0  0
   -0.0525    3.8461    0.0233 C   0  0  0  0  0  0  0  0  0  0  0  0
    1.1570    3.1778    0.0081 C   0  0  0  0  0  0  0  0  0  0  0  0
    2.6446    4.0727   -0.0018 Cl  0  0  0  0  0  0  0  0  0  0  0  0
   -2.5547    3.8658    0.0479 C   0  0  0  0  0  0  0  0  0  0  0  0
   -3.0076    4.1180   -1.3672 C   0  0  0  0  0  0  0  0  0  0  0  0
   -2.3304    3.7418   -2.2944 O   0  0  0  0  0  0  0  0  0  0  0  0
    8.4808   -3.8400    0.8241 H   0  0  0  0  0  0  0  0  0  0  0  0
    8.8390   -4.6696    2.3576 H   0  0  0  0  0  0  0  0  0  0  0  0
    9.1664   -5.4825    0.8083 H   0  0  0  0  0  0  0  0  0  0  0  0
    6.4086   -4.7149    1.8678 H   0  0  0  0  0  0  0  0  0  0  0  0
    7.0942   -6.3575    1.8520 H   0  0  0  0  0  0  0  0  0  0  0  0
    7.2695   -6.2606   -0.6195 H   0  0  0  0  0  0  0  0  0  0  0  0
    6.5839   -4.6181   -0.6037 H   0  0  0  0  0  0  0  0  0  0  0  0
    1.9653   -5.1852   -0.0371 H   0  0  0  0  0  0  0  0  0  0  0  0
    1.6240   -7.6198   -0.0575 H   0  0  0  0  0  0  0  0  0  0  0  0
    5.6920  -10.7260   -0.1159 H   0  0  0  0  0  0  0  0  0  0  0  0
    1.7717   -9.6800    1.5769 H   0  0  0  0  0  0  0  0  0  0  0  0
   -0.0128  -11.3733    1.5710 H   0  0  0  0  0  0  0  0  0  0  0  0
    0.0258  -13.2016   -0.0748 H   0  0  0  0  0  0  0  0  0  0  0  0
    1.8421  -13.3415   -1.7282 H   0  0  0  0  0  0  0  0  0  0  0  0
    3.6299  -11.6517   -1.7438 H   0  0  0  0  0  0  0  0  0  0  0  0
    2.5263   -3.3881    0.8476 H   0  0  0  0  0  0  0  0  0  0  0  0
    2.5090   -3.3779   -0.9322 H   0  0  0  0  0  0  0  0  0  0  0  0
    4.0891   -1.4670   -0.9367 H   0  0  0  0  0  0  0  0  0  0  0  0
    4.1065   -1.4772    0.8431 H   0  0  0  0  0  0  0  0  0  0  0  0
    1.6654   -1.0427    0.8695 H   0  0  0  0  0  0  0  0  0  0  0  0
    1.6480   -1.0325   -0.9104 H   0  0  0  0  0  0  0  0  0  0  0  0
    0.0021   -0.0041    0.0020 H   0  0  0  0  0  0  0  0  0  0  0  0
   -2.1451    1.1978    0.0187 H   0  0  0  0  0  0  0  0  0  0  0  0
   -0.0721    4.9259    0.0290 H   0  0  0  0  0  0  0  0  0  0  0  0
   -3.2997    3.2615    0.5655 H   0  0  0  0  0  0  0  0  0  0  0  0
   -2.4348    4.8172    0.5660 H   0  0  0  0  0  0  0  0  0  0  0  0
   -4.1633    4.7606   -1.5975 O   0  5  0  0  0  0  0  0  0  0  0  0
  1  2  1  0  0  0  0
  1 34  1  0  0  0  0
  1 35  1  0  0  0  0
  1 36  1  0  0  0  0
  2  3  1  0  0  0  0
  2 37  1  0  0  0  0
  2 38  1  0  0  0  0
  3  4  1  0  0  0  0
  3 39  1  0  0  0  0
  3 40  1  0  0  0  0
  4  9  2  0  0  0  0
  4  5  1  0  0  0  0
  5  6  2  0  0  0  0
  5 19  1  0  0  0  0
  6  7  1  0  0  0  0
  6 41  1  0  0  0  0
  7  8  2  0  0  0  0
  7 42  1  0  0  0  0
  8 12  1  0  0  0  0
  8  9  1  0  0  0  0
  9 10  1  0  0  0  0
 10 11  1  0  0  0  0
 11 12  2  0  0  0  0
 11 43  1  0  0  0  0
 12 13  1  0  0  0  0
 13 18  2  0  0  0  0
 13 14  1  0  0  0  0
 14 15  2  0  0  0  0
 14 44  1  0  0  0  0
 15 16  1  0  0  0  0
 15 45  1  0  0  0  0
 16 17  2  0  0  0  0
 16 46  1  0  0  0  0
 17 18  1  0  0  0  0
 17 47  1  0  0  0  0
 18 48  1  0  0  0  0
 19 20  1  0  0  0  0
 20 21  1  0  0  0  0
 20 49  1  0  0  0  0
 20 50  1  0  0  0  0
 21 22  1  0  0  0  0
 21 51  1  0  0  0  0
 21 52  1  0  0  0  0
 22 23  1  0  0  0  0
 22 53  1  0  0  0  0
 22 54  1  0  0  0  0
 23 24  1  0  0  0  0
 24 29  2  0  0  0  0
 24 25  1  0  0  0  0
 25 26  2  0  0  0  0
 25 55  1  0  0  0  0
 26 27  1  0  0  0  0
 26 56  1  0  0  0  0
 27 28  2  0  0  0  0
 27 31  1  0  0  0  0
 28 29  1  0  0  0  0
 28 57  1  0  0  0  0
 29 30  1  0  0  0  0
 31 32  1  0  0  0  0
 31 58  1  0  0  0  0
 31 59  1  0  0  0  0
 32 33  2  0  0  0  0
 32 60  1  0  0  0  0
M  CHG  1  60  -1
M  END
$$$$
