ZINC04137607
  -OEChem-08230709403D

 70 73  0     1  0  0  0  0  0999 V2000
    0.0466    1.1295    2.5067 C   0  0  0  0  0  0  0  0  0  0  0  0
   -0.6969    1.6302    1.2668 C   0  0  0  0  0  0  0  0  0  0  0  0
    0.0080    1.1196    0.0086 C   0  0  0  0  0  0  0  0  0  0  0  0
   -0.6976    1.5948   -1.1681 O   0  0  0  0  0  0  0  0  0  0  0  0
   -0.2018    1.2311   -2.3673 C   0  0  0  0  0  0  0  0  0  0  0  0
    0.7930    0.5357   -2.4280 O   0  0  0  0  0  0  0  0  0  0  0  0
   -0.8657    1.6763   -3.6044 C   0  0  0  0  0  0  0  0  0  0  0  0
   -2.0761    2.3729   -3.5418 C   0  0  0  0  0  0  0  0  0  0  0  0
   -2.6894    2.7902   -4.7022 C   0  0  0  0  0  0  0  0  0  0  0  0
   -2.1180    2.5148   -5.9348 C   0  0  0  0  0  0  0  0  0  0  0  0
   -0.9267    1.8239   -6.0142 C   0  0  0  0  0  0  0  0  0  0  0  0
   -0.2899    1.3987   -4.8545 C   0  0  0  0  0  0  0  0  0  0  0  0
    0.9094    0.7036   -4.9316 N   0  0  0  0  0  0  0  0  0  0  0  0
    1.5663    0.5178   -6.2278 C   0  0  2  0  0  0  0  0  0  0  0  0
    0.8108    0.3935   -7.0036 H   0  0  0  0  0  0  0  0  0  0  0  0
    2.4537   -0.7275   -6.1760 C   0  0  0  0  0  0  0  0  0  0  0  0
    1.5932   -1.9500   -5.9864 C   0  0  0  0  0  0  0  0  0  0  0  0
    1.2990   -2.3958   -4.7110 C   0  0  0  0  0  0  0  0  0  0  0  0
    0.5057   -3.5129   -4.5344 C   0  0  0  0  0  0  0  0  0  0  0  0
    0.0135   -4.1942   -5.6381 C   0  0  0  0  0  0  0  0  0  0  0  0
    0.3147   -3.7481   -6.9168 C   0  0  0  0  0  0  0  0  0  0  0  0
    1.1038   -2.6272   -7.0880 C   0  0  0  0  0  0  0  0  0  0  0  0
   -0.7629   -5.2964   -5.4671 O   0  0  0  0  0  0  0  0  0  0  0  0
   -1.0321   -5.6980   -4.1223 C   0  0  0  0  0  0  0  0  0  0  0  0
   -1.9146   -6.9477   -4.1303 C   0  0  0  0  0  0  0  0  0  0  0  0
   -2.1985   -7.3713   -2.7121 C   0  0  0  0  0  0  0  0  0  0  0  0
   -3.2360   -6.9668   -1.9570 C   0  0  0  0  0  0  0  0  0  0  0  0
   -3.1214   -7.5759   -0.7602 O   0  0  0  0  0  0  0  0  0  0  0  0
   -2.0186   -8.3437   -0.7966 C   0  0  0  0  0  0  0  0  0  0  0  0
   -1.4648   -8.2231   -1.9801 N   0  0  0  0  0  0  0  0  0  0  0  0
   -1.5172   -9.1871    0.3091 C   0  0  0  0  0  0  0  0  0  0  0  0
   -0.3571   -9.9449    0.1421 C   0  0  0  0  0  0  0  0  0  0  0  0
    0.1087  -10.7254    1.1799 C   0  0  0  0  0  0  0  0  0  0  0  0
   -0.5778  -10.7669    2.3804 C   0  0  0  0  0  0  0  0  0  0  0  0
   -1.7316  -10.0225    2.5506 C   0  0  0  0  0  0  0  0  0  0  0  0
   -2.2049   -9.2334    1.5227 C   0  0  0  0  0  0  0  0  0  0  0  0
   -4.3243   -6.0107   -2.3724 C   0  0  0  0  0  0  0  0  0  0  0  0
    2.4127    1.7251   -6.5397 C   0  0  0  0  0  0  0  0  0  0  0  0
    2.4620    2.6462   -5.7593 O   0  0  0  0  0  0  0  0  0  0  0  0
    1.0720    1.4989    2.4894 H   0  0  0  0  0  0  0  0  0  0  0  0
   -0.4556    1.4933    3.4031 H   0  0  0  0  0  0  0  0  0  0  0  0
    0.0532    0.0395    2.5109 H   0  0  0  0  0  0  0  0  0  0  0  0
   -0.7034    2.7202    1.2626 H   0  0  0  0  0  0  0  0  0  0  0  0
   -1.7222    1.2608    1.2841 H   0  0  0  0  0  0  0  0  0  0  0  0
    0.0146    0.0296    0.0128 H   0  0  0  0  0  0  0  0  0  0  0  0
    1.0334    1.4890   -0.0087 H   0  0  0  0  0  0  0  0  0  0  0  0
   -2.5280    2.5866   -2.5844 H   0  0  0  0  0  0  0  0  0  0  0  0
   -3.6226    3.3315   -4.6517 H   0  0  0  0  0  0  0  0  0  0  0  0
   -2.6089    2.8432   -6.8390 H   0  0  0  0  0  0  0  0  0  0  0  0
   -0.4882    1.6136   -6.9785 H   0  0  0  0  0  0  0  0  0  0  0  0
    1.3124    0.3409   -4.1273 H   0  0  0  0  0  0  0  0  0  0  0  0
    3.0103   -0.8161   -7.1091 H   0  0  0  0  0  0  0  0  0  0  0  0
    3.1518   -0.6418   -5.3433 H   0  0  0  0  0  0  0  0  0  0  0  0
    1.6861   -1.8677   -3.8522 H   0  0  0  0  0  0  0  0  0  0  0  0
    0.2726   -3.8582   -3.5380 H   0  0  0  0  0  0  0  0  0  0  0  0
   -0.0676   -4.2766   -7.7776 H   0  0  0  0  0  0  0  0  0  0  0  0
    1.3383   -2.2794   -8.0832 H   0  0  0  0  0  0  0  0  0  0  0  0
   -0.0934   -5.9193   -3.6144 H   0  0  0  0  0  0  0  0  0  0  0  0
   -1.5474   -4.8926   -3.5989 H   0  0  0  0  0  0  0  0  0  0  0  0
   -2.8533   -6.7265   -4.6382 H   0  0  0  0  0  0  0  0  0  0  0  0
   -1.3994   -7.7531   -4.6537 H   0  0  0  0  0  0  0  0  0  0  0  0
    0.1772   -9.9169   -0.7961 H   0  0  0  0  0  0  0  0  0  0  0  0
    1.0087  -11.3089    1.0535 H   0  0  0  0  0  0  0  0  0  0  0  0
   -0.2113  -11.3827    3.1884 H   0  0  0  0  0  0  0  0  0  0  0  0
   -2.2627  -10.0590    3.4903 H   0  0  0  0  0  0  0  0  0  0  0  0
   -3.1055   -8.6526    1.6569 H   0  0  0  0  0  0  0  0  0  0  0  0
   -5.1469   -6.5686   -2.8198 H   0  0  0  0  0  0  0  0  0  0  0  0
   -4.6856   -5.4694   -1.4980 H   0  0  0  0  0  0  0  0  0  0  0  0
   -3.9276   -5.3024   -3.0998 H   0  0  0  0  0  0  0  0  0  0  0  0
    3.1116    1.7771   -7.6845 O   0  5  0  0  0  0  0  0  0  0  0  0
  1  2  1  0  0  0  0
  1 40  1  0  0  0  0
  1 41  1  0  0  0  0
  1 42  1  0  0  0  0
  2  3  1  0  0  0  0
  2 43  1  0  0  0  0
  2 44  1  0  0  0  0
  3  4  1  0  0  0  0
  3 45  1  0  0  0  0
  3 46  1  0  0  0  0
  4  5  1  0  0  0  0
  5  6  2  0  0  0  0
  5  7  1  0  0  0  0
  7 12  2  0  0  0  0
  7  8  1  0  0  0  0
  8  9  2  0  0  0  0
  8 47  1  0  0  0  0
  9 10  1  0  0  0  0
  9 48  1  0  0  0  0
 10 11  2  0  0  0  0
 10 49  1  0  0  0  0
 11 12  1  0  0  0  0
 11 50  1  0  0  0  0
 12 13  1  0  0  0  0
 13 14  1  0  0  0  0
 13 51  1  0  0  0  0
 14 15  1  0  0  0  0
 14 16  1  0  0  0  0
 14 38  1  0  0  0  0
 16 17  1  0  0  0  0
 16 52  1  0  0  0  0
 16 53  1  0  0  0  0
 17 22  2  0  0  0  0
 17 18  1  0  0  0  0
 18 19  2  0  0  0  0
 18 54  1  0  0  0  0
 19 20  1  0  0  0  0
 19 55  1  0  0  0  0
 20 21  2  0  0  0  0
 20 23  1  0  0  0  0
 21 22  1  0  0  0  0
 21 56  1  0  0  0  0
 22 57  1  0  0  0  0
 23 24  1  0  0  0  0
 24 25  1  0  0  0  0
 24 58  1  0  0  0  0
 24 59  1  0  0  0  0
 25 26  1  0  0  0  0
 25 60  1  0  0  0  0
 25 61  1  0  0  0  0
 26 30  1  0  0  0  0
 26 27  2  0  0  0  0
 27 28  1  0  0  0  0
 27 37  1  0  0  0  0
 28 29  1  0  0  0  0
 29 30  2  0  0  0  0
 29 31  1  0  0  0  0
 31 36  2  0  0  0  0
 31 32  1  0  0  0  0
 32 33  2  0  0  0  0
 32 62  1  0  0  0  0
 33 34  1  0  0  0  0
 33 63  1  0  0  0  0
 34 35  2  0  0  0  0
 34 64  1  0  0  0  0
 35 36  1  0  0  0  0
 35 65  1  0  0  0  0
 36 66  1  0  0  0  0
 37 67  1  0  0  0  0
 37 68  1  0  0  0  0
 37 69  1  0  0  0  0
 38 39  2  0  0  0  0
 38 70  1  0  0  0  0
M  CHG  1  70  -1
M  END
$$$$
