ZINC03832284
  -OEChem-08230709403D

 70 74  0     1  0  0  0  0  0999 V2000
   -2.3595   -0.7984    4.2518 C   0  0  0  0  0  0  0  0  0  0  0  0
   -2.8928    0.4064    4.9834 C   0  0  0  0  0  0  0  0  0  0  0  0
   -3.5847    0.2643    6.1636 C   0  0  0  0  0  0  0  0  0  0  0  0
   -4.0586    1.3708    6.7938 C   0  0  0  0  0  0  0  0  0  0  0  0
   -3.5187    2.6843    5.7123 S   0  0  0  0  0  0  0  0  0  0  0  0
   -2.6947    1.6814    4.4864 C   0  0  0  0  0  0  0  0  0  0  0  0
   -1.9940    2.1012    3.2640 C   0  0  0  0  0  0  0  0  0  0  0  0
   -1.8486    3.3405    2.8485 N   0  0  0  0  0  0  0  0  0  0  0  0
   -1.1514    3.3290    1.7017 C   0  0  0  0  0  0  0  0  0  0  0  0
   -0.8692    2.0486    1.4027 C   0  0  0  0  0  0  0  0  0  0  0  0
   -1.3935    1.2824    2.3813 O   0  0  0  0  0  0  0  0  0  0  0  0
   -0.1033    1.5605    0.2001 C   0  0  0  0  0  0  0  0  0  0  0  0
   -0.7575    4.5367    0.8910 C   0  0  0  0  0  0  0  0  0  0  0  0
   -1.8562    4.8477   -0.1275 C   0  0  0  0  0  0  0  0  0  0  0  0
   -1.4826    5.9929   -0.8963 O   0  0  0  0  0  0  0  0  0  0  0  0
   -2.3555    6.4053   -1.8528 C   0  0  0  0  0  0  0  0  0  0  0  0
   -3.5444    5.7184   -2.0513 C   0  0  0  0  0  0  0  0  0  0  0  0
   -4.4324    6.1428   -3.0207 C   0  0  0  0  0  0  0  0  0  0  0  0
   -4.1323    7.2448   -3.7999 C   0  0  0  0  0  0  0  0  0  0  0  0
   -2.9455    7.9277   -3.6079 C   0  0  0  0  0  0  0  0  0  0  0  0
   -2.0565    7.5105   -2.6363 C   0  0  0  0  0  0  0  0  0  0  0  0
   -5.1002    7.7022   -4.8606 C   0  0  0  0  0  0  0  0  0  0  0  0
   -4.7789    6.9997   -6.1813 C   0  0  2  0  0  0  0  0  0  0  0  0
   -3.7349    7.1745   -6.4412 H   0  0  0  0  0  0  0  0  0  0  0  0
   -5.6659    7.5467   -7.2699 C   0  0  0  0  0  0  0  0  0  0  0  0
   -6.4160    6.8099   -7.8652 O   0  0  0  0  0  0  0  0  0  0  0  0
   -5.0123    5.5605   -6.0383 N   0  0  0  0  0  0  0  0  0  0  0  0
   -4.3377    4.6635   -6.8550 C   0  0  0  0  0  0  0  0  0  0  0  0
   -3.5282    5.1284   -7.8843 C   0  0  0  0  0  0  0  0  0  0  0  0
   -2.8543    4.2349   -8.6910 C   0  0  0  0  0  0  0  0  0  0  0  0
   -2.9867    2.8692   -8.4907 C   0  0  0  0  0  0  0  0  0  0  0  0
   -3.7886    2.3884   -7.4799 C   0  0  0  0  0  0  0  0  0  0  0  0
   -4.4742    3.2805   -6.6493 C   0  0  0  0  0  0  0  0  0  0  0  0
   -5.3342    2.7734   -5.5662 C   0  0  0  0  0  0  0  0  0  0  0  0
   -4.8347    2.3364   -4.5472 O   0  0  0  0  0  0  0  0  0  0  0  0
   -6.8043    2.7957   -5.7178 C   0  0  0  0  0  0  0  0  0  0  0  0
   -7.3788    3.1953   -6.9264 C   0  0  0  0  0  0  0  0  0  0  0  0
   -8.7513    3.2082   -7.0629 C   0  0  0  0  0  0  0  0  0  0  0  0
   -9.5588    2.8375   -6.0021 C   0  0  0  0  0  0  0  0  0  0  0  0
   -8.9964    2.4460   -4.7999 C   0  0  0  0  0  0  0  0  0  0  0  0
   -7.6252    2.4229   -4.6514 C   0  0  0  0  0  0  0  0  0  0  0  0
   -1.3516   -1.0198    4.6029 H   0  0  0  0  0  0  0  0  0  0  0  0
   -3.0067   -1.6546    4.4417 H   0  0  0  0  0  0  0  0  0  0  0  0
   -2.3344   -0.5920    3.1818 H   0  0  0  0  0  0  0  0  0  0  0  0
   -3.7536   -0.7167    6.5825 H   0  0  0  0  0  0  0  0  0  0  0  0
   -4.6193    1.4384    7.7144 H   0  0  0  0  0  0  0  0  0  0  0  0
   -0.0307    0.4734    0.2323 H   0  0  0  0  0  0  0  0  0  0  0  0
    0.8977    1.9919    0.2072 H   0  0  0  0  0  0  0  0  0  0  0  0
   -0.6229    1.8632   -0.7090 H   0  0  0  0  0  0  0  0  0  0  0  0
   -0.6241    5.3916    1.5539 H   0  0  0  0  0  0  0  0  0  0  0  0
    0.1766    4.3338    0.3672 H   0  0  0  0  0  0  0  0  0  0  0  0
   -1.9896    3.9928   -0.7904 H   0  0  0  0  0  0  0  0  0  0  0  0
   -2.7903    5.0506    0.3963 H   0  0  0  0  0  0  0  0  0  0  0  0
   -3.7773    4.8550   -1.4457 H   0  0  0  0  0  0  0  0  0  0  0  0
   -5.3600    5.6110   -3.1726 H   0  0  0  0  0  0  0  0  0  0  0  0
   -2.7134    8.7883   -4.2178 H   0  0  0  0  0  0  0  0  0  0  0  0
   -1.1295    8.0440   -2.4869 H   0  0  0  0  0  0  0  0  0  0  0  0
   -6.1170    7.4550   -4.5555 H   0  0  0  0  0  0  0  0  0  0  0  0
   -5.0124    8.7807   -4.9919 H   0  0  0  0  0  0  0  0  0  0  0  0
   -5.6382    5.2344   -5.3728 H   0  0  0  0  0  0  0  0  0  0  0  0
   -3.4229    6.1904   -8.0500 H   0  0  0  0  0  0  0  0  0  0  0  0
   -2.2225    4.6016   -9.4865 H   0  0  0  0  0  0  0  0  0  0  0  0
   -2.4583    2.1788   -9.1314 H   0  0  0  0  0  0  0  0  0  0  0  0
   -3.8876    1.3237   -7.3285 H   0  0  0  0  0  0  0  0  0  0  0  0
   -6.7497    3.4895   -7.7535 H   0  0  0  0  0  0  0  0  0  0  0  0
   -9.1968    3.5131   -7.9983 H   0  0  0  0  0  0  0  0  0  0  0  0
  -10.6330    2.8541   -6.1128 H   0  0  0  0  0  0  0  0  0  0  0  0
   -9.6324    2.1575   -3.9761 H   0  0  0  0  0  0  0  0  0  0  0  0
   -7.1875    2.1175   -3.7125 H   0  0  0  0  0  0  0  0  0  0  0  0
   -5.6226    8.8524   -7.5782 O   0  5  0  0  0  0  0  0  0  0  0  0
  1  2  1  0  0  0  0
  1 42  1  0  0  0  0
  1 43  1  0  0  0  0
  1 44  1  0  0  0  0
  2  6  2  0  0  0  0
  2  3  1  0  0  0  0
  3  4  2  0  0  0  0
  3 45  1  0  0  0  0
  4  5  1  0  0  0  0
  4 46  1  0  0  0  0
  5  6  1  0  0  0  0
  6  7  1  0  0  0  0
  7 11  1  0  0  0  0
  7  8  2  0  0  0  0
  8  9  1  0  0  0  0
  9 10  2  0  0  0  0
  9 13  1  0  0  0  0
 10 11  1  0  0  0  0
 10 12  1  0  0  0  0
 12 47  1  0  0  0  0
 12 48  1  0  0  0  0
 12 49  1  0  0  0  0
 13 14  1  0  0  0  0
 13 50  1  0  0  0  0
 13 51  1  0  0  0  0
 14 15  1  0  0  0  0
 14 52  1  0  0  0  0
 14 53  1  0  0  0  0
 15 16  1  0  0  0  0
 16 21  2  0  0  0  0
 16 17  1  0  0  0  0
 17 18  2  0  0  0  0
 17 54  1  0  0  0  0
 18 19  1  0  0  0  0
 18 55  1  0  0  0  0
 19 20  2  0  0  0  0
 19 22  1  0  0  0  0
 20 21  1  0  0  0  0
 20 56  1  0  0  0  0
 21 57  1  0  0  0  0
 22 23  1  0  0  0  0
 22 58  1  0  0  0  0
 22 59  1  0  0  0  0
 23 24  1  0  0  0  0
 23 25  1  0  0  0  0
 23 27  1  0  0  0  0
 25 26  2  0  0  0  0
 25 70  1  0  0  0  0
 27 28  1  0  0  0  0
 27 60  1  0  0  0  0
 28 33  2  0  0  0  0
 28 29  1  0  0  0  0
 29 30  2  0  0  0  0
 29 61  1  0  0  0  0
 30 31  1  0  0  0  0
 30 62  1  0  0  0  0
 31 32  2  0  0  0  0
 31 63  1  0  0  0  0
 32 33  1  0  0  0  0
 32 64  1  0  0  0  0
 33 34  1  0  0  0  0
 34 35  2  0  0  0  0
 34 36  1  0  0  0  0
 36 41  2  0  0  0  0
 36 37  1  0  0  0  0
 37 38  2  0  0  0  0
 37 65  1  0  0  0  0
 38 39  1  0  0  0  0
 38 66  1  0  0  0  0
 39 40  2  0  0  0  0
 39 67  1  0  0  0  0
 40 41  1  0  0  0  0
 40 68  1  0  0  0  0
 41 69  1  0  0  0  0
M  CHG  1  70  -1
M  END
$$$$
