ZINC03832289
  -OEChem-08230709403D

 71 75  0     1  0  0  0  0  0999 V2000
   -1.8940   -3.1368   -4.3491 C   0  0  0  0  0  0  0  0  0  0  0  0
   -1.3985   -2.3038   -3.1952 C   0  0  0  0  0  0  0  0  0  0  0  0
   -0.9938   -2.9204   -2.0243 C   0  0  0  0  0  0  0  0  0  0  0  0
   -0.5388   -2.1641   -0.9644 C   0  0  0  0  0  0  0  0  0  0  0  0
   -0.4870   -0.7730   -1.0749 C   0  0  0  0  0  0  0  0  0  0  0  0
   -0.9023   -0.1569   -2.2573 C   0  0  0  0  0  0  0  0  0  0  0  0
   -1.3498   -0.9257   -3.3115 C   0  0  0  0  0  0  0  0  0  0  0  0
   -0.0005    0.0441    0.0567 C   0  0  0  0  0  0  0  0  0  0  0  0
    0.4476   -0.4973    1.0491 O   0  0  0  0  0  0  0  0  0  0  0  0
   -0.0586    1.5141   -0.0177 C   0  0  0  0  0  0  0  0  0  0  0  0
    1.1043    2.2533   -0.2570 C   0  0  0  0  0  0  0  0  0  0  0  0
    1.0428    3.6271   -0.3257 C   0  0  0  0  0  0  0  0  0  0  0  0
   -0.1671    4.2839   -0.1594 C   0  0  0  0  0  0  0  0  0  0  0  0
   -1.3234    3.5698    0.0778 C   0  0  0  0  0  0  0  0  0  0  0  0
   -1.2834    2.1825    0.1455 C   0  0  0  0  0  0  0  0  0  0  0  0
   -2.4464    1.4614    0.3783 N   0  0  0  0  0  0  0  0  0  0  0  0
   -3.7345    2.1546    0.4583 C   0  0  2  0  0  0  0  0  0  0  0  0
   -3.5936    3.1308    0.9225 H   0  0  0  0  0  0  0  0  0  0  0  0
   -4.7082    1.3261    1.2988 C   0  0  0  0  0  0  0  0  0  0  0  0
   -4.2076    1.2500    2.7182 C   0  0  0  0  0  0  0  0  0  0  0  0
   -3.3700    0.2183    3.1002 C   0  0  0  0  0  0  0  0  0  0  0  0
   -2.9052    0.1494    4.3993 C   0  0  0  0  0  0  0  0  0  0  0  0
   -3.2883    1.1104    5.3236 C   0  0  0  0  0  0  0  0  0  0  0  0
   -4.1333    2.1414    4.9393 C   0  0  0  0  0  0  0  0  0  0  0  0
   -4.5912    2.2087    3.6377 C   0  0  0  0  0  0  0  0  0  0  0  0
   -2.8368    1.0417    6.6036 O   0  0  0  0  0  0  0  0  0  0  0  0
   -1.9700   -0.0470    6.9283 C   0  0  0  0  0  0  0  0  0  0  0  0
   -1.5687    0.0426    8.4020 C   0  0  0  0  0  0  0  0  0  0  0  0
   -2.7540   -0.1416    9.2430 N   0  0  0  0  0  0  0  0  0  0  0  0
   -3.5549    1.0176    9.6441 C   0  0  0  0  0  0  0  0  0  0  0  0
   -3.1152   -1.4039    9.6563 C   0  0  0  0  0  0  0  0  0  0  0  0
   -2.4757   -2.5042    9.3518 N   0  0  0  0  0  0  0  0  0  0  0  0
   -3.1139   -3.5557    9.9355 C   0  0  0  0  0  0  0  0  0  0  0  0
   -2.8837   -4.9319    9.9556 C   0  0  0  0  0  0  0  0  0  0  0  0
   -3.7389   -5.7576   10.6520 C   0  0  0  0  0  0  0  0  0  0  0  0
   -4.8253   -5.2290   11.3320 C   0  0  0  0  0  0  0  0  0  0  0  0
   -5.0643   -3.8696   11.3202 C   0  0  0  0  0  0  0  0  0  0  0  0
   -4.2143   -3.0250   10.6249 C   0  0  0  0  0  0  0  0  0  0  0  0
   -4.1800   -1.6871   10.4270 O   0  0  0  0  0  0  0  0  0  0  0  0
   -4.2954    2.3342   -0.9288 C   0  0  0  0  0  0  0  0  0  0  0  0
   -3.6820    1.9251   -1.8861 O   0  0  0  0  0  0  0  0  0  0  0  0
   -2.9719   -3.2733   -4.2622 H   0  0  0  0  0  0  0  0  0  0  0  0
   -1.6663   -2.6303   -5.2871 H   0  0  0  0  0  0  0  0  0  0  0  0
   -1.4021   -4.1094   -4.3328 H   0  0  0  0  0  0  0  0  0  0  0  0
   -1.0348   -3.9964   -1.9401 H   0  0  0  0  0  0  0  0  0  0  0  0
   -0.2230   -2.6466   -0.0513 H   0  0  0  0  0  0  0  0  0  0  0  0
   -0.8694    0.9188   -2.3477 H   0  0  0  0  0  0  0  0  0  0  0  0
   -1.6667   -0.4509   -4.2283 H   0  0  0  0  0  0  0  0  0  0  0  0
    2.0494    1.7472   -0.3873 H   0  0  0  0  0  0  0  0  0  0  0  0
    1.9418    4.1963   -0.5106 H   0  0  0  0  0  0  0  0  0  0  0  0
   -0.2044    5.3618   -0.2156 H   0  0  0  0  0  0  0  0  0  0  0  0
   -2.2613    4.0894    0.2069 H   0  0  0  0  0  0  0  0  0  0  0  0
   -2.4062    0.4985    0.4880 H   0  0  0  0  0  0  0  0  0  0  0  0
   -5.6914    1.7966    1.2850 H   0  0  0  0  0  0  0  0  0  0  0  0
   -4.7809    0.3205    0.8847 H   0  0  0  0  0  0  0  0  0  0  0  0
   -3.0757   -0.5320    2.3813 H   0  0  0  0  0  0  0  0  0  0  0  0
   -2.2478   -0.6543    4.6961 H   0  0  0  0  0  0  0  0  0  0  0  0
   -4.4326    2.8908    5.6570 H   0  0  0  0  0  0  0  0  0  0  0  0
   -5.2491    3.0110    3.3380 H   0  0  0  0  0  0  0  0  0  0  0  0
   -2.4876   -0.9894    6.7493 H   0  0  0  0  0  0  0  0  0  0  0  0
   -1.0771    0.0012    6.3050 H   0  0  0  0  0  0  0  0  0  0  0  0
   -0.8387   -0.7347    8.6277 H   0  0  0  0  0  0  0  0  0  0  0  0
   -1.1308    1.0209    8.6005 H   0  0  0  0  0  0  0  0  0  0  0  0
   -4.3334    1.1956    8.9023 H   0  0  0  0  0  0  0  0  0  0  0  0
   -4.0142    0.8241   10.6135 H   0  0  0  0  0  0  0  0  0  0  0  0
   -2.9130    1.8958    9.7150 H   0  0  0  0  0  0  0  0  0  0  0  0
   -2.0385   -5.3480    9.4276 H   0  0  0  0  0  0  0  0  0  0  0  0
   -3.5617   -6.8228   10.6686 H   0  0  0  0  0  0  0  0  0  0  0  0
   -5.4895   -5.8856   11.8745 H   0  0  0  0  0  0  0  0  0  0  0  0
   -5.9128   -3.4651   11.8520 H   0  0  0  0  0  0  0  0  0  0  0  0
   -5.4763    2.9487   -1.1010 O   0  5  0  0  0  0  0  0  0  0  0  0
  1  2  1  0  0  0  0
  1 42  1  0  0  0  0
  1 43  1  0  0  0  0
  1 44  1  0  0  0  0
  2  7  2  0  0  0  0
  2  3  1  0  0  0  0
  3  4  2  0  0  0  0
  3 45  1  0  0  0  0
  4  5  1  0  0  0  0
  4 46  1  0  0  0  0
  5  6  2  0  0  0  0
  5  8  1  0  0  0  0
  6  7  1  0  0  0  0
  6 47  1  0  0  0  0
  7 48  1  0  0  0  0
  8  9  2  0  0  0  0
  8 10  1  0  0  0  0
 10 15  2  0  0  0  0
 10 11  1  0  0  0  0
 11 12  2  0  0  0  0
 11 49  1  0  0  0  0
 12 13  1  0  0  0  0
 12 50  1  0  0  0  0
 13 14  2  0  0  0  0
 13 51  1  0  0  0  0
 14 15  1  0  0  0  0
 14 52  1  0  0  0  0
 15 16  1  0  0  0  0
 16 17  1  0  0  0  0
 16 53  1  0  0  0  0
 17 18  1  0  0  0  0
 17 19  1  0  0  0  0
 17 40  1  0  0  0  0
 19 20  1  0  0  0  0
 19 54  1  0  0  0  0
 19 55  1  0  0  0  0
 20 25  2  0  0  0  0
 20 21  1  0  0  0  0
 21 22  2  0  0  0  0
 21 56  1  0  0  0  0
 22 23  1  0  0  0  0
 22 57  1  0  0  0  0
 23 24  2  0  0  0  0
 23 26  1  0  0  0  0
 24 25  1  0  0  0  0
 24 58  1  0  0  0  0
 25 59  1  0  0  0  0
 26 27  1  0  0  0  0
 27 28  1  0  0  0  0
 27 60  1  0  0  0  0
 27 61  1  0  0  0  0
 28 29  1  0  0  0  0
 28 62  1  0  0  0  0
 28 63  1  0  0  0  0
 29 30  1  0  0  0  0
 29 31  1  0  0  0  0
 30 64  1  0  0  0  0
 30 65  1  0  0  0  0
 30 66  1  0  0  0  0
 31 39  1  0  0  0  0
 31 32  2  0  0  0  0
 32 33  1  0  0  0  0
 33 38  2  0  0  0  0
 33 34  1  0  0  0  0
 34 35  2  0  0  0  0
 34 67  1  0  0  0  0
 35 36  1  0  0  0  0
 35 68  1  0  0  0  0
 36 37  2  0  0  0  0
 36 69  1  0  0  0  0
 37 38  1  0  0  0  0
 37 70  1  0  0  0  0
 38 39  1  0  0  0  0
 40 41  2  0  0  0  0
 40 71  1  0  0  0  0
M  CHG  1  71  -1
M  END
$$$$
