ZINC03832299
  -OEChem-08230709403D

 71 75  0     1  0  0  0  0  0999 V2000
   -2.5757    5.4836   -0.2138 C   0  0  0  0  0  0  0  0  0  0  0  0
   -2.5418    3.9812   -0.1013 C   0  0  0  0  0  0  0  0  0  0  0  0
   -3.7280    3.2707    0.0038 C   0  0  0  0  0  0  0  0  0  0  0  0
   -3.7122    1.8951    0.1070 C   0  0  0  0  0  0  0  0  0  0  0  0
   -2.5032    1.2103    0.1004 C   0  0  0  0  0  0  0  0  0  0  0  0
   -1.2993    1.9273   -0.0000 C   0  0  0  0  0  0  0  0  0  0  0  0
   -1.3332    3.3215   -0.1039 C   0  0  0  0  0  0  0  0  0  0  0  0
   -0.0100    1.2148   -0.0021 C   0  0  0  0  0  0  0  0  0  0  0  0
    0.6035    1.0707   -1.0421 O   0  0  0  0  0  0  0  0  0  0  0  0
    0.5411    0.6804    1.2611 C   0  0  0  0  0  0  0  0  0  0  0  0
   -0.0988    0.9463    2.4735 C   0  0  0  0  0  0  0  0  0  0  0  0
    0.4177    0.4396    3.6479 C   0  0  0  0  0  0  0  0  0  0  0  0
    1.5735   -0.3211    3.6277 C   0  0  0  0  0  0  0  0  0  0  0  0
    2.2158   -0.5837    2.4305 C   0  0  0  0  0  0  0  0  0  0  0  0
    1.7071   -0.0880    1.2481 C   0  0  0  0  0  0  0  0  0  0  0  0
   -2.4848   -0.1743    0.1979 N   0  0  0  0  0  0  0  0  0  0  0  0
   -3.7422   -0.9261    0.1867 C   0  0  1  0  0  0  0  0  0  0  0  0
   -4.4543   -0.4334   -0.4753 H   0  0  0  0  0  0  0  0  0  0  0  0
   -3.4814   -2.3486   -0.3128 C   0  0  0  0  0  0  0  0  0  0  0  0
   -3.0322   -2.3016   -1.7505 C   0  0  0  0  0  0  0  0  0  0  0  0
   -3.9661   -2.3688   -2.7679 C   0  0  0  0  0  0  0  0  0  0  0  0
   -3.5573   -2.3202   -4.0866 C   0  0  0  0  0  0  0  0  0  0  0  0
   -2.2076   -2.2150   -4.3898 C   0  0  0  0  0  0  0  0  0  0  0  0
   -1.2721   -2.1535   -3.3672 C   0  0  0  0  0  0  0  0  0  0  0  0
   -1.6864   -2.1972   -2.0501 C   0  0  0  0  0  0  0  0  0  0  0  0
   -1.8025   -2.1727   -5.6863 O   0  0  0  0  0  0  0  0  0  0  0  0
   -2.8207   -2.2406   -6.6867 C   0  0  0  0  0  0  0  0  0  0  0  0
   -2.1778   -2.1795   -8.0737 C   0  0  0  0  0  0  0  0  0  0  0  0
   -1.3503   -3.3705   -8.2813 N   0  0  0  0  0  0  0  0  0  0  0  0
    0.0628   -3.3571   -7.8951 C   0  0  0  0  0  0  0  0  0  0  0  0
   -1.9007   -4.5021   -8.8393 C   0  0  0  0  0  0  0  0  0  0  0  0
   -3.1487   -4.6227   -9.2136 N   0  0  0  0  0  0  0  0  0  0  0  0
   -3.3332   -5.8722   -9.7218 C   0  0  0  0  0  0  0  0  0  0  0  0
   -4.4334   -6.5407  -10.2602 C   0  0  0  0  0  0  0  0  0  0  0  0
   -4.2976   -7.8414  -10.6938 C   0  0  0  0  0  0  0  0  0  0  0  0
   -3.0753   -8.4885  -10.5980 C   0  0  0  0  0  0  0  0  0  0  0  0
   -1.9791   -7.8387  -10.0675 C   0  0  0  0  0  0  0  0  0  0  0  0
   -2.0982   -6.5308   -9.6267 C   0  0  0  0  0  0  0  0  0  0  0  0
   -1.2357   -5.6469   -9.0741 O   0  0  0  0  0  0  0  0  0  0  0  0
   -4.3078   -0.9797    1.5825 C   0  0  0  0  0  0  0  0  0  0  0  0
   -3.7209   -0.4447    2.4931 O   0  0  0  0  0  0  0  0  0  0  0  0
   -2.6285    5.7681   -1.2647 H   0  0  0  0  0  0  0  0  0  0  0  0
   -3.4506    5.8676    0.3110 H   0  0  0  0  0  0  0  0  0  0  0  0
   -1.6727    5.9017    0.2310 H   0  0  0  0  0  0  0  0  0  0  0  0
   -4.6707    3.7978    0.0045 H   0  0  0  0  0  0  0  0  0  0  0  0
   -4.6408    1.3496    0.1881 H   0  0  0  0  0  0  0  0  0  0  0  0
   -0.4126    3.8801   -0.1863 H   0  0  0  0  0  0  0  0  0  0  0  0
   -0.9982    1.5439    2.4911 H   0  0  0  0  0  0  0  0  0  0  0  0
   -0.0784    0.6411    4.5858 H   0  0  0  0  0  0  0  0  0  0  0  0
    1.9763   -0.7113    4.5507 H   0  0  0  0  0  0  0  0  0  0  0  0
    3.1173   -1.1784    2.4218 H   0  0  0  0  0  0  0  0  0  0  0  0
    2.2095   -0.2934    0.3144 H   0  0  0  0  0  0  0  0  0  0  0  0
   -1.6395   -0.6440    0.2734 H   0  0  0  0  0  0  0  0  0  0  0  0
   -2.7041   -2.8106    0.2958 H   0  0  0  0  0  0  0  0  0  0  0  0
   -4.3978   -2.9338   -0.2374 H   0  0  0  0  0  0  0  0  0  0  0  0
   -5.0163   -2.4551   -2.5314 H   0  0  0  0  0  0  0  0  0  0  0  0
   -4.2874   -2.3686   -4.8809 H   0  0  0  0  0  0  0  0  0  0  0  0
   -0.2208   -2.0712   -3.6006 H   0  0  0  0  0  0  0  0  0  0  0  0
   -0.9585   -2.1493   -1.2536 H   0  0  0  0  0  0  0  0  0  0  0  0
   -3.3709   -3.1757   -6.5821 H   0  0  0  0  0  0  0  0  0  0  0  0
   -3.5051   -1.4009   -6.5661 H   0  0  0  0  0  0  0  0  0  0  0  0
   -2.9576   -2.1418   -8.8343 H   0  0  0  0  0  0  0  0  0  0  0  0
   -1.5555   -1.2875   -8.1468 H   0  0  0  0  0  0  0  0  0  0  0  0
    0.1604   -3.6927   -6.8627 H   0  0  0  0  0  0  0  0  0  0  0  0
    0.6244   -4.0245   -8.5488 H   0  0  0  0  0  0  0  0  0  0  0  0
    0.4548   -2.3442   -7.9865 H   0  0  0  0  0  0  0  0  0  0  0  0
   -5.3875   -6.0404  -10.3371 H   0  0  0  0  0  0  0  0  0  0  0  0
   -5.1483   -8.3597  -11.1110 H   0  0  0  0  0  0  0  0  0  0  0  0
   -2.9802   -9.5083  -10.9406 H   0  0  0  0  0  0  0  0  0  0  0  0
   -1.0301   -8.3493   -9.9957 H   0  0  0  0  0  0  0  0  0  0  0  0
   -5.4637   -1.6217    1.8141 O   0  5  0  0  0  0  0  0  0  0  0  0
  1  2  1  0  0  0  0
  1 42  1  0  0  0  0
  1 43  1  0  0  0  0
  1 44  1  0  0  0  0
  2  7  2  0  0  0  0
  2  3  1  0  0  0  0
  3  4  2  0  0  0  0
  3 45  1  0  0  0  0
  4  5  1  0  0  0  0
  4 46  1  0  0  0  0
  5  6  2  0  0  0  0
  5 16  1  0  0  0  0
  6  7  1  0  0  0  0
  6  8  1  0  0  0  0
  7 47  1  0  0  0  0
  8  9  2  0  0  0  0
  8 10  1  0  0  0  0
 10 15  2  0  0  0  0
 10 11  1  0  0  0  0
 11 12  2  0  0  0  0
 11 48  1  0  0  0  0
 12 13  1  0  0  0  0
 12 49  1  0  0  0  0
 13 14  2  0  0  0  0
 13 50  1  0  0  0  0
 14 15  1  0  0  0  0
 14 51  1  0  0  0  0
 15 52  1  0  0  0  0
 16 17  1  0  0  0  0
 16 53  1  0  0  0  0
 17 18  1  0  0  0  0
 17 19  1  0  0  0  0
 17 40  1  0  0  0  0
 19 20  1  0  0  0  0
 19 54  1  0  0  0  0
 19 55  1  0  0  0  0
 20 25  2  0  0  0  0
 20 21  1  0  0  0  0
 21 22  2  0  0  0  0
 21 56  1  0  0  0  0
 22 23  1  0  0  0  0
 22 57  1  0  0  0  0
 23 24  2  0  0  0  0
 23 26  1  0  0  0  0
 24 25  1  0  0  0  0
 24 58  1  0  0  0  0
 25 59  1  0  0  0  0
 26 27  1  0  0  0  0
 27 28  1  0  0  0  0
 27 60  1  0  0  0  0
 27 61  1  0  0  0  0
 28 29  1  0  0  0  0
 28 62  1  0  0  0  0
 28 63  1  0  0  0  0
 29 30  1  0  0  0  0
 29 31  1  0  0  0  0
 30 64  1  0  0  0  0
 30 65  1  0  0  0  0
 30 66  1  0  0  0  0
 31 39  1  0  0  0  0
 31 32  2  0  0  0  0
 32 33  1  0  0  0  0
 33 38  2  0  0  0  0
 33 34  1  0  0  0  0
 34 35  2  0  0  0  0
 34 67  1  0  0  0  0
 35 36  1  0  0  0  0
 35 68  1  0  0  0  0
 36 37  2  0  0  0  0
 36 69  1  0  0  0  0
 37 38  1  0  0  0  0
 37 70  1  0  0  0  0
 38 39  1  0  0  0  0
 40 41  2  0  0  0  0
 40 71  1  0  0  0  0
M  CHG  1  71  -1
M  END
$$$$
