ZINC03832282
  -OEChem-08230709403D

 71 75  0     1  0  0  0  0  0999 V2000
    0.8683    1.4845    8.2589 C   0  0  0  0  0  0  0  0  0  0  0  0
    1.8704    2.5944    8.4463 C   0  0  0  0  0  0  0  0  0  0  0  0
    1.6100    3.8245    8.9401 C   0  0  0  0  0  0  0  0  0  0  0  0
    2.8168    4.5506    8.9486 C   0  0  0  0  0  0  0  0  0  0  0  0
    3.7641    3.7674    8.4777 N   0  0  0  0  0  0  0  0  0  0  0  0
    3.1867    2.5338    8.1509 N   0  0  0  0  0  0  0  0  0  0  0  0
    3.8899    1.3767    7.5916 C   0  0  0  0  0  0  0  0  0  0  0  0
    3.8574    1.4498    6.0637 C   0  0  0  0  0  0  0  0  0  0  0  0
    4.5434    0.3211    5.5181 O   0  0  0  0  0  0  0  0  0  0  0  0
    4.6067    0.2333    4.1635 C   0  0  0  0  0  0  0  0  0  0  0  0
    5.2575   -0.8365    3.5662 C   0  0  0  0  0  0  0  0  0  0  0  0
    5.3201   -0.9238    2.1890 C   0  0  0  0  0  0  0  0  0  0  0  0
    4.7350    0.0540    1.4058 C   0  0  0  0  0  0  0  0  0  0  0  0
    4.0907    1.1241    1.9987 C   0  0  0  0  0  0  0  0  0  0  0  0
    4.0204    1.2130    3.3755 C   0  0  0  0  0  0  0  0  0  0  0  0
    4.8048   -0.0437   -0.0964 C   0  0  0  0  0  0  0  0  0  0  0  0
    3.5939   -0.8227   -0.6137 C   0  0  2  0  0  0  0  0  0  0  0  0
    3.5460   -1.7918   -0.1169 H   0  0  0  0  0  0  0  0  0  0  0  0
    3.7257   -1.0267   -2.1010 C   0  0  0  0  0  0  0  0  0  0  0  0
    2.8842   -0.5868   -2.8480 O   0  0  0  0  0  0  0  0  0  0  0  0
    2.3705   -0.0681   -0.3308 N   0  0  0  0  0  0  0  0  0  0  0  0
    1.1571   -0.7318   -0.2130 C   0  0  0  0  0  0  0  0  0  0  0  0
    1.0782   -2.0947   -0.4725 C   0  0  0  0  0  0  0  0  0  0  0  0
   -0.1300   -2.7509   -0.3603 C   0  0  0  0  0  0  0  0  0  0  0  0
   -1.2721   -2.0608    0.0168 C   0  0  0  0  0  0  0  0  0  0  0  0
   -1.2138   -0.7112    0.2833 C   0  0  0  0  0  0  0  0  0  0  0  0
    0.0031   -0.0306    0.1743 C   0  0  0  0  0  0  0  0  0  0  0  0
    0.0731    1.4132    0.4580 C   0  0  0  0  0  0  0  0  0  0  0  0
    0.0489    1.8089    1.6076 O   0  0  0  0  0  0  0  0  0  0  0  0
    0.1787    2.3807   -0.6545 C   0  0  0  0  0  0  0  0  0  0  0  0
    0.1643    1.9329   -1.9771 C   0  0  0  0  0  0  0  0  0  0  0  0
    0.2589    2.8416   -3.0105 C   0  0  0  0  0  0  0  0  0  0  0  0
    0.3777    4.1933   -2.7388 C   0  0  0  0  0  0  0  0  0  0  0  0
    0.3979    4.6434   -1.4304 C   0  0  0  0  0  0  0  0  0  0  0  0
    0.2992    3.7461   -0.3875 C   0  0  0  0  0  0  0  0  0  0  0  0
    2.9909    5.9495    9.4128 C   0  0  0  0  0  0  0  0  0  0  0  0
    1.8976    6.6685    9.8914 C   0  0  0  0  0  0  0  0  0  0  0  0
    2.0661    7.9675   10.3263 C   0  0  0  0  0  0  0  0  0  0  0  0
    3.3153    8.5594   10.2774 C   0  0  0  0  0  0  0  0  0  0  0  0
    4.4032    7.8518    9.7988 C   0  0  0  0  0  0  0  0  0  0  0  0
    4.2470    6.5504    9.3662 C   0  0  0  0  0  0  0  0  0  0  0  0
    0.8243    0.8781    9.1636 H   0  0  0  0  0  0  0  0  0  0  0  0
   -0.1144    1.9120    8.0599 H   0  0  0  0  0  0  0  0  0  0  0  0
    1.1703    0.8606    7.4176 H   0  0  0  0  0  0  0  0  0  0  0  0
    0.6474    4.1869    9.2694 H   0  0  0  0  0  0  0  0  0  0  0  0
    3.4013    0.4601    7.9220 H   0  0  0  0  0  0  0  0  0  0  0  0
    4.9249    1.3804    7.9336 H   0  0  0  0  0  0  0  0  0  0  0  0
    4.3460    2.3664    5.7333 H   0  0  0  0  0  0  0  0  0  0  0  0
    2.8225    1.4461    5.7217 H   0  0  0  0  0  0  0  0  0  0  0  0
    5.7144   -1.6007    4.1775 H   0  0  0  0  0  0  0  0  0  0  0  0
    5.8263   -1.7566    1.7235 H   0  0  0  0  0  0  0  0  0  0  0  0
    3.6385    1.8891    1.3848 H   0  0  0  0  0  0  0  0  0  0  0  0
    3.5132    2.0468    3.8380 H   0  0  0  0  0  0  0  0  0  0  0  0
    5.7199   -0.5610   -0.3847 H   0  0  0  0  0  0  0  0  0  0  0  0
    4.8029    0.9581   -0.5261 H   0  0  0  0  0  0  0  0  0  0  0  0
    2.4084    0.8955   -0.2258 H   0  0  0  0  0  0  0  0  0  0  0  0
    1.9629   -2.6398   -0.7667 H   0  0  0  0  0  0  0  0  0  0  0  0
   -0.1867   -3.8094   -0.5671 H   0  0  0  0  0  0  0  0  0  0  0  0
   -2.2127   -2.5848    0.1014 H   0  0  0  0  0  0  0  0  0  0  0  0
   -2.1066   -0.1790    0.5765 H   0  0  0  0  0  0  0  0  0  0  0  0
    0.0758    0.8779   -2.1905 H   0  0  0  0  0  0  0  0  0  0  0  0
    0.2441    2.4971   -4.0340 H   0  0  0  0  0  0  0  0  0  0  0  0
    0.4552    4.9002   -3.5517 H   0  0  0  0  0  0  0  0  0  0  0  0
    0.4908    5.6997   -1.2254 H   0  0  0  0  0  0  0  0  0  0  0  0
    0.3155    4.0986    0.6332 H   0  0  0  0  0  0  0  0  0  0  0  0
    0.9209    6.2089    9.9254 H   0  0  0  0  0  0  0  0  0  0  0  0
    1.2202    8.5243   10.7016 H   0  0  0  0  0  0  0  0  0  0  0  0
    3.4418    9.5776   10.6146 H   0  0  0  0  0  0  0  0  0  0  0  0
    5.3765    8.3185    9.7631 H   0  0  0  0  0  0  0  0  0  0  0  0
    5.0971    5.9988    8.9927 H   0  0  0  0  0  0  0  0  0  0  0  0
    4.7781   -1.6971   -2.5958 O   0  5  0  0  0  0  0  0  0  0  0  0
  1  2  1  0  0  0  0
  1 42  1  0  0  0  0
  1 43  1  0  0  0  0
  1 44  1  0  0  0  0
  2  6  1  0  0  0  0
  2  3  2  0  0  0  0
  3  4  1  0  0  0  0
  3 45  1  0  0  0  0
  4  5  2  0  0  0  0
  4 36  1  0  0  0  0
  5  6  1  0  0  0  0
  6  7  1  0  0  0  0
  7  8  1  0  0  0  0
  7 46  1  0  0  0  0
  7 47  1  0  0  0  0
  8  9  1  0  0  0  0
  8 48  1  0  0  0  0
  8 49  1  0  0  0  0
  9 10  1  0  0  0  0
 10 15  2  0  0  0  0
 10 11  1  0  0  0  0
 11 12  2  0  0  0  0
 11 50  1  0  0  0  0
 12 13  1  0  0  0  0
 12 51  1  0  0  0  0
 13 14  2  0  0  0  0
 13 16  1  0  0  0  0
 14 15  1  0  0  0  0
 14 52  1  0  0  0  0
 15 53  1  0  0  0  0
 16 17  1  0  0  0  0
 16 54  1  0  0  0  0
 16 55  1  0  0  0  0
 17 18  1  0  0  0  0
 17 19  1  0  0  0  0
 17 21  1  0  0  0  0
 19 20  2  0  0  0  0
 19 71  1  0  0  0  0
 21 22  1  0  0  0  0
 21 56  1  0  0  0  0
 22 27  2  0  0  0  0
 22 23  1  0  0  0  0
 23 24  2  0  0  0  0
 23 57  1  0  0  0  0
 24 25  1  0  0  0  0
 24 58  1  0  0  0  0
 25 26  2  0  0  0  0
 25 59  1  0  0  0  0
 26 27  1  0  0  0  0
 26 60  1  0  0  0  0
 27 28  1  0  0  0  0
 28 29  2  0  0  0  0
 28 30  1  0  0  0  0
 30 35  2  0  0  0  0
 30 31  1  0  0  0  0
 31 32  2  0  0  0  0
 31 61  1  0  0  0  0
 32 33  1  0  0  0  0
 32 62  1  0  0  0  0
 33 34  2  0  0  0  0
 33 63  1  0  0  0  0
 34 35  1  0  0  0  0
 34 64  1  0  0  0  0
 35 65  1  0  0  0  0
 36 41  2  0  0  0  0
 36 37  1  0  0  0  0
 37 38  2  0  0  0  0
 37 66  1  0  0  0  0
 38 39  1  0  0  0  0
 38 67  1  0  0  0  0
 39 40  2  0  0  0  0
 39 68  1  0  0  0  0
 40 41  1  0  0  0  0
 40 69  1  0  0  0  0
 41 70  1  0  0  0  0
M  CHG  1  71  -1
M  END
$$$$
