ZINC04137622
  -OEChem-08230709403D

 82 87  0     1  0  0  0  0  0999 V2000
   -3.5685    0.9977    9.6387 C   0  0  0  0  0  0  0  0  0  0  0  0
   -2.7663   -0.1604    9.2367 N   0  0  0  0  0  0  0  0  0  0  0  0
   -1.5797    0.0260    8.3980 C   0  0  0  0  0  0  0  0  0  0  0  0
   -1.9786   -0.0612    6.9235 C   0  0  0  0  0  0  0  0  0  0  0  0
   -2.8455    1.0277    6.5994 O   0  0  0  0  0  0  0  0  0  0  0  0
   -3.2949    1.0984    5.3188 C   0  0  0  0  0  0  0  0  0  0  0  0
   -4.1399    2.1296    4.9350 C   0  0  0  0  0  0  0  0  0  0  0  0
   -4.5958    2.1991    3.6327 C   0  0  0  0  0  0  0  0  0  0  0  0
   -4.2102    1.2422    2.7121 C   0  0  0  0  0  0  0  0  0  0  0  0
   -3.3727    0.2103    3.0936 C   0  0  0  0  0  0  0  0  0  0  0  0
   -2.9099    0.1393    4.3933 C   0  0  0  0  0  0  0  0  0  0  0  0
   -4.7086    1.3207    1.2921 C   0  0  0  0  0  0  0  0  0  0  0  0
   -3.7339    2.1512    0.4547 C   0  0  2  0  0  0  0  0  0  0  0  0
   -3.5943    3.1266    0.9208 H   0  0  0  0  0  0  0  0  0  0  0  0
   -4.2927    2.3331   -0.9330 C   0  0  0  0  0  0  0  0  0  0  0  0
   -3.6775    1.9260   -1.8901 O   0  0  0  0  0  0  0  0  0  0  0  0
   -2.4453    1.4588    0.3755 N   0  0  0  0  0  0  0  0  0  0  0  0
   -1.2822    2.1812    0.1458 C   0  0  0  0  0  0  0  0  0  0  0  0
   -1.3228    3.5685    0.0807 C   0  0  0  0  0  0  0  0  0  0  0  0
   -0.1666    4.2836   -0.1543 C   0  0  0  0  0  0  0  0  0  0  0  0
    1.0436    3.6277   -0.3204 C   0  0  0  0  0  0  0  0  0  0  0  0
    1.1056    2.2537   -0.2536 C   0  0  0  0  0  0  0  0  0  0  0  0
   -0.0570    1.5138   -0.0166 C   0  0  0  0  0  0  0  0  0  0  0  0
    0.0018    0.0432    0.0562 C   0  0  0  0  0  0  0  0  0  0  0  0
    0.4491   -0.4992    1.0488 O   0  0  0  0  0  0  0  0  0  0  0  0
   -0.4820   -0.7715   -1.0750 C   0  0  0  0  0  0  0  0  0  0  0  0
   -0.8962   -0.1523   -2.2582 C   0  0  0  0  0  0  0  0  0  0  0  0
   -1.3415   -0.9164   -3.3132 C   0  0  0  0  0  0  0  0  0  0  0  0
   -1.3909   -2.3012   -3.1991 C   0  0  0  0  0  0  0  0  0  0  0  0
   -0.9854   -2.9206   -2.0223 C   0  0  0  0  0  0  0  0  0  0  0  0
   -0.5329   -2.1643   -0.9647 C   0  0  0  0  0  0  0  0  0  0  0  0
   -1.8358   -3.0504   -4.2394 O   0  0  0  0  0  0  0  0  0  0  0  0
   -2.2369   -2.3498   -5.4186 C   0  0  0  0  0  0  0  0  0  0  0  0
   -2.6975   -3.3388   -6.4582 C   0  0  0  0  0  0  0  0  0  0  0  0
   -1.7929   -3.8625   -7.3628 C   0  0  0  0  0  0  0  0  0  0  0  0
   -2.2144   -4.7737   -8.3130 C   0  0  0  0  0  0  0  0  0  0  0  0
   -3.5427   -5.1529   -8.3657 C   0  0  0  0  0  0  0  0  0  0  0  0
   -4.4484   -4.6248   -7.4648 C   0  0  0  0  0  0  0  0  0  0  0  0
   -4.0258   -3.7180   -6.5109 C   0  0  0  0  0  0  0  0  0  0  0  0
   -3.1275   -1.4237    9.6471 C   0  0  0  0  0  0  0  0  0  0  0  0
   -2.4869   -2.5231    9.3417 N   0  0  0  0  0  0  0  0  0  0  0  0
   -3.1255   -3.5759    9.9225 C   0  0  0  0  0  0  0  0  0  0  0  0
   -2.8946   -4.9521    9.9404 C   0  0  0  0  0  0  0  0  0  0  0  0
   -3.7505   -5.7795   10.6340 C   0  0  0  0  0  0  0  0  0  0  0  0
   -4.8383   -5.2528   11.3132 C   0  0  0  0  0  0  0  0  0  0  0  0
   -5.0780   -3.8934   11.3035 C   0  0  0  0  0  0  0  0  0  0  0  0
   -4.2273   -3.0472   10.6111 C   0  0  0  0  0  0  0  0  0  0  0  0
   -4.1933   -1.7088   10.4157 O   0  0  0  0  0  0  0  0  0  0  0  0
   -4.3459    1.1766    8.8959 H   0  0  0  0  0  0  0  0  0  0  0  0
   -4.0292    0.8021   10.6070 H   0  0  0  0  0  0  0  0  0  0  0  0
   -2.9272    1.8760    9.7122 H   0  0  0  0  0  0  0  0  0  0  0  0
   -0.8497   -0.7514    8.6234 H   0  0  0  0  0  0  0  0  0  0  0  0
   -1.1427    1.0041    8.5990 H   0  0  0  0  0  0  0  0  0  0  0  0
   -2.4955   -1.0035    6.7420 H   0  0  0  0  0  0  0  0  0  0  0  0
   -1.0848   -0.0114    6.3017 H   0  0  0  0  0  0  0  0  0  0  0  0
   -4.4408    2.8776    5.6535 H   0  0  0  0  0  0  0  0  0  0  0  0
   -5.2536    3.0016    3.3334 H   0  0  0  0  0  0  0  0  0  0  0  0
   -3.0767   -0.5385    2.3738 H   0  0  0  0  0  0  0  0  0  0  0  0
   -2.2525   -0.6646    4.6898 H   0  0  0  0  0  0  0  0  0  0  0  0
   -5.6919    1.7907    1.2776 H   0  0  0  0  0  0  0  0  0  0  0  0
   -4.7800    0.3157    0.8760 H   0  0  0  0  0  0  0  0  0  0  0  0
   -2.4048    0.4957    0.4835 H   0  0  0  0  0  0  0  0  0  0  0  0
   -2.2612    4.0874    0.2093 H   0  0  0  0  0  0  0  0  0  0  0  0
   -0.2044    5.3616   -0.2089 H   0  0  0  0  0  0  0  0  0  0  0  0
    1.9426    4.1975   -0.5036 H   0  0  0  0  0  0  0  0  0  0  0  0
    2.0510    1.7481   -0.3838 H   0  0  0  0  0  0  0  0  0  0  0  0
   -0.8627    0.9236   -2.3459 H   0  0  0  0  0  0  0  0  0  0  0  0
   -1.6568   -0.4393   -4.2294 H   0  0  0  0  0  0  0  0  0  0  0  0
   -1.0250   -3.9965   -1.9379 H   0  0  0  0  0  0  0  0  0  0  0  0
   -0.2174   -2.6463   -0.0511 H   0  0  0  0  0  0  0  0  0  0  0  0
   -3.0537   -1.6697   -5.1771 H   0  0  0  0  0  0  0  0  0  0  0  0
   -1.3928   -1.7803   -5.8077 H   0  0  0  0  0  0  0  0  0  0  0  0
   -0.7560   -3.5629   -7.3244 H   0  0  0  0  0  0  0  0  0  0  0  0
   -1.5066   -5.1866   -9.0166 H   0  0  0  0  0  0  0  0  0  0  0  0
   -3.8727   -5.8620   -9.1105 H   0  0  0  0  0  0  0  0  0  0  0  0
   -5.4862   -4.9211   -7.5059 H   0  0  0  0  0  0  0  0  0  0  0  0
   -4.7335   -3.3054   -5.8070 H   0  0  0  0  0  0  0  0  0  0  0  0
   -2.0483   -5.3668    9.4130 H   0  0  0  0  0  0  0  0  0  0  0  0
   -3.5727   -6.8447   10.6489 H   0  0  0  0  0  0  0  0  0  0  0  0
   -5.5029   -5.9106   11.8534 H   0  0  0  0  0  0  0  0  0  0  0  0
   -5.9276   -3.4903   11.8346 H   0  0  0  0  0  0  0  0  0  0  0  0
   -5.4736    2.9472   -1.1059 O   0  5  0  0  0  0  0  0  0  0  0  0
  1  2  1  0  0  0  0
  1 49  1  0  0  0  0
  1 50  1  0  0  0  0
  1 51  1  0  0  0  0
  2  3  1  0  0  0  0
  2 40  1  0  0  0  0
  3  4  1  0  0  0  0
  3 52  1  0  0  0  0
  3 53  1  0  0  0  0
  4  5  1  0  0  0  0
  4 54  1  0  0  0  0
  4 55  1  0  0  0  0
  5  6  1  0  0  0  0
  6 11  2  0  0  0  0
  6  7  1  0  0  0  0
  7  8  2  0  0  0  0
  7 56  1  0  0  0  0
  8  9  1  0  0  0  0
  8 57  1  0  0  0  0
  9 10  2  0  0  0  0
  9 12  1  0  0  0  0
 10 11  1  0  0  0  0
 10 58  1  0  0  0  0
 11 59  1  0  0  0  0
 12 13  1  0  0  0  0
 12 60  1  0  0  0  0
 12 61  1  0  0  0  0
 13 14  1  0  0  0  0
 13 15  1  0  0  0  0
 13 17  1  0  0  0  0
 15 16  2  0  0  0  0
 15 82  1  0  0  0  0
 17 18  1  0  0  0  0
 17 62  1  0  0  0  0
 18 23  2  0  0  0  0
 18 19  1  0  0  0  0
 19 20  2  0  0  0  0
 19 63  1  0  0  0  0
 20 21  1  0  0  0  0
 20 64  1  0  0  0  0
 21 22  2  0  0  0  0
 21 65  1  0  0  0  0
 22 23  1  0  0  0  0
 22 66  1  0  0  0  0
 23 24  1  0  0  0  0
 24 25  2  0  0  0  0
 24 26  1  0  0  0  0
 26 31  2  0  0  0  0
 26 27  1  0  0  0  0
 27 28  2  0  0  0  0
 27 67  1  0  0  0  0
 28 29  1  0  0  0  0
 28 68  1  0  0  0  0
 29 30  2  0  0  0  0
 29 32  1  0  0  0  0
 30 31  1  0  0  0  0
 30 69  1  0  0  0  0
 31 70  1  0  0  0  0
 32 33  1  0  0  0  0
 33 34  1  0  0  0  0
 33 71  1  0  0  0  0
 33 72  1  0  0  0  0
 34 39  2  0  0  0  0
 34 35  1  0  0  0  0
 35 36  2  0  0  0  0
 35 73  1  0  0  0  0
 36 37  1  0  0  0  0
 36 74  1  0  0  0  0
 37 38  2  0  0  0  0
 37 75  1  0  0  0  0
 38 39  1  0  0  0  0
 38 76  1  0  0  0  0
 39 77  1  0  0  0  0
 40 48  1  0  0  0  0
 40 41  2  0  0  0  0
 41 42  1  0  0  0  0
 42 47  2  0  0  0  0
 42 43  1  0  0  0  0
 43 44  2  0  0  0  0
 43 78  1  0  0  0  0
 44 45  1  0  0  0  0
 44 79  1  0  0  0  0
 45 46  2  0  0  0  0
 45 80  1  0  0  0  0
 46 47  1  0  0  0  0
 46 81  1  0  0  0  0
 47 48  1  0  0  0  0
M  CHG  1  82  -1
M  END
$$$$
