ZINC03815501
  -OEChem-08230709403D

 57 60  0     0  0  0  0  0  0999 V2000
    0.0001   -6.4621    2.3646 C   0  0  0  0  0  0  0  0  0  0  0  0
    0.2945   -6.0773    0.9133 C   0  0  0  0  0  0  0  0  0  0  0  0
    0.4120   -4.2190   -0.6345 C   0  0  0  0  0  0  0  0  0  0  0  0
    0.2377   -2.7046   -0.7652 C   0  0  0  0  0  0  0  0  0  0  0  0
    1.2247   -2.0414    0.0273 O   0  0  0  0  0  0  0  0  0  0  0  0
    1.2089   -0.6817    0.0223 C   0  0  0  0  0  0  0  0  0  0  0  0
    2.1394    0.0252    0.7698 C   0  0  0  0  0  0  0  0  0  0  0  0
    2.1234    1.4060    0.7661 C   0  0  0  0  0  0  0  0  0  0  0  0
    1.1757    2.0869    0.0133 C   0  0  0  0  0  0  0  0  0  0  0  0
    0.2449    1.3786   -0.7351 C   0  0  0  0  0  0  0  0  0  0  0  0
    0.2619   -0.0022   -0.7299 C   0  0  0  0  0  0  0  0  0  0  0  0
    1.1585    3.4870    0.0093 N   0  0  0  0  0  0  0  0  0  0  0  0
    2.3421    4.1926    0.1060 C   0  0  0  0  0  0  0  0  0  0  0  0
    3.4897    3.5228    0.0897 N   0  0  0  0  0  0  0  0  0  0  0  0
    4.6477    4.1493    0.1791 C   0  0  0  0  0  0  0  0  0  0  0  0
    4.6476    5.5480    0.2929 C   0  0  0  0  0  0  0  0  0  0  0  0
    5.8558    6.2749    0.3918 C   0  0  0  0  0  0  0  0  0  0  0  0
    5.8029    7.6388    0.5005 C   0  0  0  0  0  0  0  0  0  0  0  0
    4.5009    8.3092    0.5118 C   0  0  0  0  0  0  0  0  0  0  0  0
    4.4447    9.5222    0.6078 O   0  0  0  0  0  0  0  0  0  0  0  0
    3.3654    7.5912    0.4161 N   0  0  0  0  0  0  0  0  0  0  0  0
    3.4087    6.2242    0.3068 C   0  0  0  0  0  0  0  0  0  0  0  0
    2.2918    5.5119    0.2063 N   0  0  0  0  0  0  0  0  0  0  0  0
    2.0708    8.2769    0.4284 C   0  0  0  0  0  0  0  0  0  0  0  0
    7.0516    8.4292    0.6063 C   0  0  0  0  0  0  0  0  0  0  0  0
    7.5990    8.7101    1.8588 C   0  0  0  0  0  0  0  0  0  0  0  0
    8.7657    9.4437    1.9502 C   0  0  0  0  0  0  0  0  0  0  0  0
    9.3860    9.9080    0.8043 C   0  0  0  0  0  0  0  0  0  0  0  0
    8.8456    9.6374   -0.4400 C   0  0  0  0  0  0  0  0  0  0  0  0
    7.6821    8.9008   -0.5457 C   0  0  0  0  0  0  0  0  0  0  0  0
    7.0052    8.5629   -2.1082 Cl  0  0  0  0  0  0  0  0  0  0  0  0
    6.8185    8.1341    3.2984 Cl  0  0  0  0  0  0  0  0  0  0  0  0
    0.1173   -7.5390    2.4858 H   0  0  0  0  0  0  0  0  0  0  0  0
    0.6949   -5.9443    3.0258 H   0  0  0  0  0  0  0  0  0  0  0  0
   -1.0215   -6.1772    2.6159 H   0  0  0  0  0  0  0  0  0  0  0  0
   -0.4002   -6.5951    0.2520 H   0  0  0  0  0  0  0  0  0  0  0  0
    1.3161   -6.3622    0.6619 H   0  0  0  0  0  0  0  0  0  0  0  0
   -0.2819   -4.7240   -1.3065 H   0  0  0  0  0  0  0  0  0  0  0  0
    1.4345   -4.4911   -0.8966 H   0  0  0  0  0  0  0  0  0  0  0  0
   -0.7564   -2.4221   -0.4187 H   0  0  0  0  0  0  0  0  0  0  0  0
    0.3548   -2.4142   -1.8092 H   0  0  0  0  0  0  0  0  0  0  0  0
    2.8763   -0.5046    1.3552 H   0  0  0  0  0  0  0  0  0  0  0  0
    2.8448    1.9561    1.3519 H   0  0  0  0  0  0  0  0  0  0  0  0
   -0.4922    1.9074   -1.3211 H   0  0  0  0  0  0  0  0  0  0  0  0
   -0.4619   -0.5533   -1.3119 H   0  0  0  0  0  0  0  0  0  0  0  0
    0.3154    3.9615   -0.0615 H   0  0  0  0  0  0  0  0  0  0  0  0
    5.5758    3.5973    0.1647 H   0  0  0  0  0  0  0  0  0  0  0  0
    6.8063    5.7623    0.3820 H   0  0  0  0  0  0  0  0  0  0  0  0
    1.7155    8.3640    1.4552 H   0  0  0  0  0  0  0  0  0  0  0  0
    2.1824    9.2716   -0.0031 H   0  0  0  0  0  0  0  0  0  0  0  0
    1.3513    7.7052   -0.1578 H   0  0  0  0  0  0  0  0  0  0  0  0
    9.1927    9.6584    2.9187 H   0  0  0  0  0  0  0  0  0  0  0  0
   10.2960   10.4844    0.8814 H   0  0  0  0  0  0  0  0  0  0  0  0
    9.3344   10.0034   -1.3309 H   0  0  0  0  0  0  0  0  0  0  0  0
    0.1338   -4.6193    0.7578 N   0  3  0  0  0  0  0  0  0  0  0  0
    0.7879   -4.1376    1.3858 H   0  0  0  0  0  0  0  0  0  0  0  0
   -0.8290   -4.3569    0.9997 H   0  0  0  0  0  0  0  0  0  0  0  0
  1  2  1  0  0  0  0
  1 33  1  0  0  0  0
  1 34  1  0  0  0  0
  1 35  1  0  0  0  0
  2 36  1  0  0  0  0
  2 37  1  0  0  0  0
  2 55  1  0  0  0  0
  3  4  1  0  0  0  0
  3 38  1  0  0  0  0
  3 39  1  0  0  0  0
  3 55  1  0  0  0  0
  4  5  1  0  0  0  0
  4 40  1  0  0  0  0
  4 41  1  0  0  0  0
  5  6  1  0  0  0  0
  6 11  2  0  0  0  0
  6  7  1  0  0  0  0
  7  8  2  0  0  0  0
  7 42  1  0  0  0  0
  8  9  1  0  0  0  0
  8 43  1  0  0  0  0
  9 10  2  0  0  0  0
  9 12  1  0  0  0  0
 10 11  1  0  0  0  0
 10 44  1  0  0  0  0
 11 45  1  0  0  0  0
 12 13  1  0  0  0  0
 12 46  1  0  0  0  0
 13 23  2  0  0  0  0
 13 14  1  0  0  0  0
 14 15  2  0  0  0  0
 15 16  1  0  0  0  0
 15 47  1  0  0  0  0
 16 22  2  0  0  0  0
 16 17  1  0  0  0  0
 17 18  2  0  0  0  0
 17 48  1  0  0  0  0
 18 19  1  0  0  0  0
 18 25  1  0  0  0  0
 19 20  2  0  0  0  0
 19 21  1  0  0  0  0
 21 22  1  0  0  0  0
 21 24  1  0  0  0  0
 22 23  1  0  0  0  0
 24 49  1  0  0  0  0
 24 50  1  0  0  0  0
 24 51  1  0  0  0  0
 25 30  2  0  0  0  0
 25 26  1  0  0  0  0
 26 27  2  0  0  0  0
 26 32  1  0  0  0  0
 27 28  1  0  0  0  0
 27 52  1  0  0  0  0
 28 29  2  0  0  0  0
 28 53  1  0  0  0  0
 29 30  1  0  0  0  0
 29 54  1  0  0  0  0
 30 31  1  0  0  0  0
 55 56  1  0  0  0  0
 55 57  1  0  0  0  0
M  CHG  1  55   1
M  END
$$$$
