ZINC03815487
  -OEChem-08230709403D

 78 81  0     0  0  0  0  0  0999 V2000
   -3.2811    3.7176    1.2871 C   0  0  0  0  0  0  0  0  0  0  0  0
   -2.4898    4.1049    0.0362 C   0  0  0  0  0  0  0  0  0  0  0  0
   -2.2306    5.6128    0.0431 C   0  0  0  0  0  0  0  0  0  0  0  0
   -3.2929    3.7312   -1.2113 C   0  0  0  0  0  0  0  0  0  0  0  0
   -1.2113    3.3897    0.0262 N   0  0  0  0  0  0  0  0  0  0  0  0
   -1.1930    2.0421    0.0188 C   0  0  0  0  0  0  0  0  0  0  0  0
   -2.2375    1.4200    0.0204 O   0  0  0  0  0  0  0  0  0  0  0  0
   -0.0168    1.3842    0.0097 N   0  0  0  0  0  0  0  0  0  0  0  0
    0.0021   -0.0041    0.0020 C   0  0  0  0  0  0  0  0  0  0  0  0
    1.2425   -0.6779   -0.0193 C   0  0  0  0  0  0  0  0  0  0  0  0
    1.2686   -2.0625   -0.0215 C   0  0  0  0  0  0  0  0  0  0  0  0
    0.0399   -2.7461   -0.0140 C   0  0  0  0  0  0  0  0  0  0  0  0
   -0.0254   -4.1469   -0.0209 C   0  0  0  0  0  0  0  0  0  0  0  0
   -2.3427   -4.0871    0.0030 C   0  0  0  0  0  0  0  0  0  0  0  0
   -2.3806   -2.7070    0.0103 C   0  0  0  0  0  0  0  0  0  0  0  0
   -1.1683   -1.9990    0.0021 C   0  0  0  0  0  0  0  0  0  0  0  0
   -1.1371   -0.6637    0.0094 N   0  0  0  0  0  0  0  0  0  0  0  0
   -3.5369   -4.7985    0.0111 N   0  0  0  0  0  0  0  0  0  0  0  0
   -4.8154   -4.0834    0.0277 C   0  0  0  0  0  0  0  0  0  0  0  0
   -5.9647   -5.0934    0.0337 C   0  0  0  0  0  0  0  0  0  0  0  0
   -7.2999   -4.3465    0.0510 C   0  0  0  0  0  0  0  0  0  0  0  0
   -8.4484   -6.0706   -1.2042 C   0  0  0  0  0  0  0  0  0  0  0  0
   -9.5721   -7.1080   -1.1322 C   0  0  0  0  0  0  0  0  0  0  0  0
  -10.8084   -6.4456   -0.8530 O   0  0  0  0  0  0  0  0  0  0  0  0
  -10.8000   -5.7017    0.3684 C   0  0  0  0  0  0  0  0  0  0  0  0
   -9.6888   -4.6501    0.3116 C   0  0  0  0  0  0  0  0  0  0  0  0
    2.5096    0.0921   -0.0333 C   0  0  0  0  0  0  0  0  0  0  0  0
    2.6929    1.1182   -0.9580 C   0  0  0  0  0  0  0  0  0  0  0  0
    3.8759    1.8392   -0.9650 C   0  0  0  0  0  0  0  0  0  0  0  0
    4.8815    1.5336   -0.0596 C   0  0  0  0  0  0  0  0  0  0  0  0
    4.7046    0.5088    0.8586 C   0  0  0  0  0  0  0  0  0  0  0  0
    3.5219   -0.2126    0.8744 C   0  0  0  0  0  0  0  0  0  0  0  0
    5.6922    0.2126    1.7439 O   0  0  0  0  0  0  0  0  0  0  0  0
    6.8848    0.9965    1.6716 C   0  0  0  0  0  0  0  0  0  0  0  0
    4.0535    2.8435   -1.8631 O   0  0  0  0  0  0  0  0  0  0  0  0
    5.2995    3.5416   -1.8178 C   0  0  0  0  0  0  0  0  0  0  0  0
   -2.7089    3.9839    2.1758 H   0  0  0  0  0  0  0  0  0  0  0  0
   -4.2323    4.2498    1.2945 H   0  0  0  0  0  0  0  0  0  0  0  0
   -3.4657    2.6434    1.2821 H   0  0  0  0  0  0  0  0  0  0  0  0
   -1.6669    5.8887   -0.8480 H   0  0  0  0  0  0  0  0  0  0  0  0
   -3.1819    6.1449    0.0505 H   0  0  0  0  0  0  0  0  0  0  0  0
   -1.6585    5.8790    0.9319 H   0  0  0  0  0  0  0  0  0  0  0  0
   -3.4775    2.6570   -1.2163 H   0  0  0  0  0  0  0  0  0  0  0  0
   -4.2442    4.2633   -1.2039 H   0  0  0  0  0  0  0  0  0  0  0  0
   -2.7292    4.0071   -2.1025 H   0  0  0  0  0  0  0  0  0  0  0  0
   -0.3779    3.8861    0.0250 H   0  0  0  0  0  0  0  0  0  0  0  0
    0.8166    1.8806    0.0044 H   0  0  0  0  0  0  0  0  0  0  0  0
    2.2046   -2.6010   -0.0341 H   0  0  0  0  0  0  0  0  0  0  0  0
    0.8845   -4.7285   -0.0331 H   0  0  0  0  0  0  0  0  0  0  0  0
   -3.3245   -2.1823    0.0222 H   0  0  0  0  0  0  0  0  0  0  0  0
   -3.5237   -5.7684    0.0057 H   0  0  0  0  0  0  0  0  0  0  0  0
   -4.8728   -3.4624    0.9216 H   0  0  0  0  0  0  0  0  0  0  0  0
   -4.8905   -3.4528   -0.8582 H   0  0  0  0  0  0  0  0  0  0  0  0
   -5.9073   -5.7144   -0.8603 H   0  0  0  0  0  0  0  0  0  0  0  0
   -5.8895   -5.7240    0.9196 H   0  0  0  0  0  0  0  0  0  0  0  0
   -7.3572   -3.7255    0.9450 H   0  0  0  0  0  0  0  0  0  0  0  0
   -7.3750   -3.7159   -0.8348 H   0  0  0  0  0  0  0  0  0  0  0  0
   -8.6374   -5.3861   -2.0312 H   0  0  0  0  0  0  0  0  0  0  0  0
   -7.4955   -6.5764   -1.3601 H   0  0  0  0  0  0  0  0  0  0  0  0
   -9.3558   -7.8243   -0.3396 H   0  0  0  0  0  0  0  0  0  0  0  0
   -9.6464   -7.6307   -2.0857 H   0  0  0  0  0  0  0  0  0  0  0  0
  -10.6195   -6.3771    1.2047 H   0  0  0  0  0  0  0  0  0  0  0  0
  -11.7626   -5.2074    0.5002 H   0  0  0  0  0  0  0  0  0  0  0  0
   -9.6414   -4.1189    1.2623 H   0  0  0  0  0  0  0  0  0  0  0  0
   -9.8977   -3.9429   -0.4911 H   0  0  0  0  0  0  0  0  0  0  0  0
    1.9120    1.3539   -1.6659 H   0  0  0  0  0  0  0  0  0  0  0  0
    5.8044    2.0944   -0.0698 H   0  0  0  0  0  0  0  0  0  0  0  0
    3.3849   -1.0105    1.5892 H   0  0  0  0  0  0  0  0  0  0  0  0
    6.6415    2.0449    1.8442 H   0  0  0  0  0  0  0  0  0  0  0  0
    7.5893    0.6572    2.4310 H   0  0  0  0  0  0  0  0  0  0  0  0
    7.3334    0.8854    0.6844 H   0  0  0  0  0  0  0  0  0  0  0  0
    5.4234    4.0006   -0.8369 H   0  0  0  0  0  0  0  0  0  0  0  0
    6.1152    2.8411   -1.9967 H   0  0  0  0  0  0  0  0  0  0  0  0
    5.3104    4.3157   -2.5851 H   0  0  0  0  0  0  0  0  0  0  0  0
   -1.1918   -4.8379   -0.0125 N   0  3  0  0  0  0  0  0  0  0  0  0
   -1.2140   -5.8644   -0.0175 H   0  0  0  0  0  0  0  0  0  0  0  0
   -8.4002   -5.3344    0.0768 N   0  3  0  0  0  0  0  0  0  0  0  0
   -8.2322   -6.0012    0.8393 H   0  0  0  0  0  0  0  0  0  0  0  0
  1  2  1  0  0  0  0
  1 37  1  0  0  0  0
  1 38  1  0  0  0  0
  1 39  1  0  0  0  0
  2  3  1  0  0  0  0
  2  4  1  0  0  0  0
  2  5  1  0  0  0  0
  3 40  1  0  0  0  0
  3 41  1  0  0  0  0
  3 42  1  0  0  0  0
  4 43  1  0  0  0  0
  4 44  1  0  0  0  0
  4 45  1  0  0  0  0
  5  6  1  0  0  0  0
  5 46  1  0  0  0  0
  6  7  2  0  0  0  0
  6  8  1  0  0  0  0
  8  9  1  0  0  0  0
  8 47  1  0  0  0  0
  9 17  2  0  0  0  0
  9 10  1  0  0  0  0
 10 11  2  0  0  0  0
 10 27  1  0  0  0  0
 11 12  1  0  0  0  0
 11 48  1  0  0  0  0
 12 16  2  0  0  0  0
 12 13  1  0  0  0  0
 13 49  1  0  0  0  0
 13 75  2  0  0  0  0
 14 15  2  0  0  0  0
 14 18  1  0  0  0  0
 14 75  1  0  0  0  0
 15 16  1  0  0  0  0
 15 50  1  0  0  0  0
 16 17  1  0  0  0  0
 18 19  1  0  0  0  0
 18 51  1  0  0  0  0
 19 20  1  0  0  0  0
 19 52  1  0  0  0  0
 19 53  1  0  0  0  0
 20 21  1  0  0  0  0
 20 54  1  0  0  0  0
 20 55  1  0  0  0  0
 21 56  1  0  0  0  0
 21 57  1  0  0  0  0
 21 77  1  0  0  0  0
 22 23  1  0  0  0  0
 22 58  1  0  0  0  0
 22 59  1  0  0  0  0
 22 77  1  0  0  0  0
 23 24  1  0  0  0  0
 23 60  1  0  0  0  0
 23 61  1  0  0  0  0
 24 25  1  0  0  0  0
 25 26  1  0  0  0  0
 25 62  1  0  0  0  0
 25 63  1  0  0  0  0
 26 64  1  0  0  0  0
 26 65  1  0  0  0  0
 26 77  1  0  0  0  0
 27 32  2  0  0  0  0
 27 28  1  0  0  0  0
 28 29  2  0  0  0  0
 28 66  1  0  0  0  0
 29 30  1  0  0  0  0
 29 35  1  0  0  0  0
 30 31  2  0  0  0  0
 30 67  1  0  0  0  0
 31 32  1  0  0  0  0
 31 33  1  0  0  0  0
 32 68  1  0  0  0  0
 33 34  1  0  0  0  0
 34 69  1  0  0  0  0
 34 70  1  0  0  0  0
 34 71  1  0  0  0  0
 35 36  1  0  0  0  0
 36 72  1  0  0  0  0
 36 73  1  0  0  0  0
 36 74  1  0  0  0  0
 75 76  1  0  0  0  0
 77 78  1  0  0  0  0
M  CHG  2  75   1  77   1
M  END
$$$$
