ZINC03815545
  -OEChem-08230709403D

 60 63  0     0  0  0  0  0  0999 V2000
    2.5650   -3.0211   -1.9633 C   0  0  0  0  0  0  0  0  0  0  0  0
    1.1279   -3.4878   -2.2038 C   0  0  0  0  0  0  0  0  0  0  0  0
   -1.0941   -2.6109   -2.5995 C   0  0  0  0  0  0  0  0  0  0  0  0
   -0.9453   -2.4469   -4.1134 C   0  0  0  0  0  0  0  0  0  0  0  0
    0.0372   -2.1444   -0.5102 C   0  0  0  0  0  0  0  0  0  0  0  0
    1.1371   -1.3742   -0.0213 O   0  0  0  0  0  0  0  0  0  0  0  0
    1.0934   -0.0318   -0.2333 C   0  0  0  0  0  0  0  0  0  0  0  0
    2.1287    0.7750    0.2154 C   0  0  0  0  0  0  0  0  0  0  0  0
    2.0851    2.1384    0.0005 C   0  0  0  0  0  0  0  0  0  0  0  0
    1.0043    2.7018   -0.6650 C   0  0  0  0  0  0  0  0  0  0  0  0
   -0.0318    1.8934   -1.1139 C   0  0  0  0  0  0  0  0  0  0  0  0
    0.0132    0.5303   -0.8978 C   0  0  0  0  0  0  0  0  0  0  0  0
    0.9590    4.0842   -0.8829 N   0  0  0  0  0  0  0  0  0  0  0  0
    2.1271    4.7868   -1.1057 C   0  0  0  0  0  0  0  0  0  0  0  0
    3.2682    4.1142   -1.2122 N   0  0  0  0  0  0  0  0  0  0  0  0
    4.4114    4.7379   -1.4250 C   0  0  0  0  0  0  0  0  0  0  0  0
    4.4024    6.1367   -1.5382 C   0  0  0  0  0  0  0  0  0  0  0  0
    5.5948    6.8604   -1.7667 C   0  0  0  0  0  0  0  0  0  0  0  0
    5.5340    8.2244   -1.8701 C   0  0  0  0  0  0  0  0  0  0  0  0
    4.2401    8.8980   -1.7420 C   0  0  0  0  0  0  0  0  0  0  0  0
    4.1769   10.1111   -1.8326 O   0  0  0  0  0  0  0  0  0  0  0  0
    3.1196    8.1830   -1.5240 N   0  0  0  0  0  0  0  0  0  0  0  0
    3.1709    6.8160   -1.4194 C   0  0  0  0  0  0  0  0  0  0  0  0
    2.0680    6.1054   -1.2107 N   0  0  0  0  0  0  0  0  0  0  0  0
    1.8330    8.8721   -1.3977 C   0  0  0  0  0  0  0  0  0  0  0  0
    6.7661    9.0116   -2.1099 C   0  0  0  0  0  0  0  0  0  0  0  0
    7.2245    9.9062   -1.1433 C   0  0  0  0  0  0  0  0  0  0  0  0
    8.3758   10.6322   -1.3700 C   0  0  0  0  0  0  0  0  0  0  0  0
    9.0684   10.4829   -2.5582 C   0  0  0  0  0  0  0  0  0  0  0  0
    8.6157    9.6009   -3.5231 C   0  0  0  0  0  0  0  0  0  0  0  0
    7.4689    8.8650   -3.3055 C   0  0  0  0  0  0  0  0  0  0  0  0
    3.2571   -3.8111   -2.2549 H   0  0  0  0  0  0  0  0  0  0  0  0
    2.7614   -2.1285   -2.5572 H   0  0  0  0  0  0  0  0  0  0  0  0
    2.7003   -2.7914   -0.9064 H   0  0  0  0  0  0  0  0  0  0  0  0
    0.8961   -4.3126   -1.5301 H   0  0  0  0  0  0  0  0  0  0  0  0
    1.0221   -3.8212   -3.2362 H   0  0  0  0  0  0  0  0  0  0  0  0
   -1.4335   -3.6222   -2.3752 H   0  0  0  0  0  0  0  0  0  0  0  0
   -1.8231   -1.8918   -2.2260 H   0  0  0  0  0  0  0  0  0  0  0  0
   -1.9018   -2.6469   -4.5963 H   0  0  0  0  0  0  0  0  0  0  0  0
   -0.6303   -1.4281   -4.3392 H   0  0  0  0  0  0  0  0  0  0  0  0
   -0.1978   -3.1487   -4.4832 H   0  0  0  0  0  0  0  0  0  0  0  0
    0.0047   -3.1021    0.0094 H   0  0  0  0  0  0  0  0  0  0  0  0
   -0.8924   -1.6034   -0.3332 H   0  0  0  0  0  0  0  0  0  0  0  0
    2.9690    0.3368    0.7333 H   0  0  0  0  0  0  0  0  0  0  0  0
    2.8891    2.7669    0.3539 H   0  0  0  0  0  0  0  0  0  0  0  0
   -0.8729    2.3308   -1.6312 H   0  0  0  0  0  0  0  0  0  0  0  0
   -0.7927   -0.0985   -1.2465 H   0  0  0  0  0  0  0  0  0  0  0  0
    0.1073    4.5484   -0.8774 H   0  0  0  0  0  0  0  0  0  0  0  0
    5.3343    4.1836   -1.5107 H   0  0  0  0  0  0  0  0  0  0  0  0
    6.5397    6.3453   -1.8579 H   0  0  0  0  0  0  0  0  0  0  0  0
    1.9836    9.9461   -1.5073 H   0  0  0  0  0  0  0  0  0  0  0  0
    1.1541    8.5193   -2.1741 H   0  0  0  0  0  0  0  0  0  0  0  0
    1.4038    8.6636   -0.4177 H   0  0  0  0  0  0  0  0  0  0  0  0
    6.6820   10.0271   -0.2173 H   0  0  0  0  0  0  0  0  0  0  0  0
    8.7343   11.3221   -0.6203 H   0  0  0  0  0  0  0  0  0  0  0  0
    9.9664   11.0569   -2.7331 H   0  0  0  0  0  0  0  0  0  0  0  0
    9.1608    9.4882   -4.4486 H   0  0  0  0  0  0  0  0  0  0  0  0
    7.1164    8.1768   -4.0594 H   0  0  0  0  0  0  0  0  0  0  0  0
    0.2143   -2.3510   -1.9630 N   0  3  0  0  0  0  0  0  0  0  0  0
    0.6222   -1.5027   -2.3732 H   0  0  0  0  0  0  0  0  0  0  0  0
  1  2  1  0  0  0  0
  1 32  1  0  0  0  0
  1 33  1  0  0  0  0
  1 34  1  0  0  0  0
  2 35  1  0  0  0  0
  2 36  1  0  0  0  0
  2 59  1  0  0  0  0
  3  4  1  0  0  0  0
  3 37  1  0  0  0  0
  3 38  1  0  0  0  0
  3 59  1  0  0  0  0
  4 39  1  0  0  0  0
  4 40  1  0  0  0  0
  4 41  1  0  0  0  0
  5  6  1  0  0  0  0
  5 42  1  0  0  0  0
  5 43  1  0  0  0  0
  5 59  1  0  0  0  0
  6  7  1  0  0  0  0
  7 12  2  0  0  0  0
  7  8  1  0  0  0  0
  8  9  2  0  0  0  0
  8 44  1  0  0  0  0
  9 10  1  0  0  0  0
  9 45  1  0  0  0  0
 10 11  2  0  0  0  0
 10 13  1  0  0  0  0
 11 12  1  0  0  0  0
 11 46  1  0  0  0  0
 12 47  1  0  0  0  0
 13 14  1  0  0  0  0
 13 48  1  0  0  0  0
 14 24  2  0  0  0  0
 14 15  1  0  0  0  0
 15 16  2  0  0  0  0
 16 17  1  0  0  0  0
 16 49  1  0  0  0  0
 17 23  2  0  0  0  0
 17 18  1  0  0  0  0
 18 19  2  0  0  0  0
 18 50  1  0  0  0  0
 19 20  1  0  0  0  0
 19 26  1  0  0  0  0
 20 21  2  0  0  0  0
 20 22  1  0  0  0  0
 22 23  1  0  0  0  0
 22 25  1  0  0  0  0
 23 24  1  0  0  0  0
 25 51  1  0  0  0  0
 25 52  1  0  0  0  0
 25 53  1  0  0  0  0
 26 31  2  0  0  0  0
 26 27  1  0  0  0  0
 27 28  2  0  0  0  0
 27 54  1  0  0  0  0
 28 29  1  0  0  0  0
 28 55  1  0  0  0  0
 29 30  2  0  0  0  0
 29 56  1  0  0  0  0
 30 31  1  0  0  0  0
 30 57  1  0  0  0  0
 31 58  1  0  0  0  0
 59 60  1  0  0  0  0
M  CHG  1  59   1
M  END
$$$$
