ZINC03815532
  -OEChem-08230709403D

 46 49  0     0  0  0  0  0  0999 V2000
   -1.2677    2.1516   -1.4090 C   0  0  0  0  0  0  0  0  0  0  0  0
   -0.1024    1.7178   -1.9971 C   0  0  0  0  0  0  0  0  0  0  0  0
    1.1050    2.3564   -1.7213 C   0  0  0  0  0  0  0  0  0  0  0  0
    1.1203    3.4436   -0.8321 C   0  0  0  0  0  0  0  0  0  0  0  0
   -0.0517    3.8801   -0.2335 C   0  0  0  0  0  0  0  0  0  0  0  0
   -1.2546    3.2316   -0.5189 C   0  0  0  0  0  0  0  0  0  0  0  0
   -2.5081    3.6863    0.1115 C   0  0  0  0  0  0  0  0  0  0  0  0
   -2.4949    4.6268    0.8806 O   0  0  0  0  0  0  0  0  0  0  0  0
    2.5282    3.8943   -0.7511 C   0  0  0  0  0  0  0  0  0  0  0  0
    3.0359    4.9367    0.0003 C   0  0  0  0  0  0  0  0  0  0  0  0
    4.4300    5.1330    0.0826 C   0  0  0  0  0  0  0  0  0  0  0  0
    5.0825    6.3537    0.1878 C   0  0  0  0  0  0  0  0  0  0  0  0
    6.4449    6.0818    0.2411 C   0  0  0  0  0  0  0  0  0  0  0  0
    6.6108    4.7322    0.1692 C   0  0  0  0  0  0  0  0  0  0  0  0
    5.3947    4.1465    0.0795 N   0  0  0  0  0  0  0  0  0  0  0  0
    5.2288    3.1926    0.0207 H   0  0  0  0  0  0  0  0  0  0  0  0
    7.9572    4.0481    0.1948 C   0  0  0  0  0  0  0  0  0  0  0  0
    9.0370    5.0930   -0.1097 C   0  0  0  0  0  0  0  0  0  0  0  0
    8.8382    6.3129    0.7938 C   0  0  0  0  0  0  0  0  0  0  0  0
    7.5780    7.0708    0.3590 C   0  0  0  0  0  0  0  0  0  0  0  0
    4.4370    7.7146    0.2345 C   0  0  0  0  0  0  0  0  0  0  0  0
    4.1452    8.0911    1.6885 C   0  0  0  0  0  0  0  0  0  0  0  0
    3.4997    9.4520    1.7352 C   0  0  0  0  0  0  0  0  0  0  0  0
    3.2941   10.0587    0.7107 O   0  0  0  0  0  0  0  0  0  0  0  0
    3.2677    2.9922   -1.6431 C   0  0  0  0  0  0  0  0  0  0  0  0
    4.4657    3.0256   -1.8615 O   0  0  0  0  0  0  0  0  0  0  0  0
    2.3923    2.1237   -2.1763 N   0  0  0  0  0  0  0  0  0  0  0  0
   -2.1991    1.6530   -1.6330 H   0  0  0  0  0  0  0  0  0  0  0  0
   -0.1241    0.8810   -2.6794 H   0  0  0  0  0  0  0  0  0  0  0  0
   -0.0340    4.7164    0.4496 H   0  0  0  0  0  0  0  0  0  0  0  0
    2.3651    5.6012    0.5245 H   0  0  0  0  0  0  0  0  0  0  0  0
    7.9838    3.2621   -0.5599 H   0  0  0  0  0  0  0  0  0  0  0  0
    8.1312    3.6170    1.1807 H   0  0  0  0  0  0  0  0  0  0  0  0
    8.9630    5.3982   -1.1535 H   0  0  0  0  0  0  0  0  0  0  0  0
   10.0213    4.6620    0.0735 H   0  0  0  0  0  0  0  0  0  0  0  0
    9.7038    6.9703    0.7124 H   0  0  0  0  0  0  0  0  0  0  0  0
    8.7267    5.9853    1.8274 H   0  0  0  0  0  0  0  0  0  0  0  0
    7.7509    7.5477   -0.6058 H   0  0  0  0  0  0  0  0  0  0  0  0
    7.3292    7.8271    1.1035 H   0  0  0  0  0  0  0  0  0  0  0  0
    5.1104    8.4514   -0.2034 H   0  0  0  0  0  0  0  0  0  0  0  0
    3.5046    7.6941   -0.3296 H   0  0  0  0  0  0  0  0  0  0  0  0
    3.4717    7.3543    2.1264 H   0  0  0  0  0  0  0  0  0  0  0  0
    5.0776    8.1116    2.2527 H   0  0  0  0  0  0  0  0  0  0  0  0
    2.6318    1.4218   -2.8015 H   0  0  0  0  0  0  0  0  0  0  0  0
   -3.6678    3.0588   -0.1656 O   0  5  0  0  0  0  0  0  0  0  0  0
    3.1531    9.9903    2.9150 O   0  5  0  0  0  0  0  0  0  0  0  0
  1  6  2  0  0  0  0
  1  2  1  0  0  0  0
  1 28  1  0  0  0  0
  2  3  2  0  0  0  0
  2 29  1  0  0  0  0
  3 27  1  0  0  0  0
  3  4  1  0  0  0  0
  4  5  2  0  0  0  0
  4  9  1  0  0  0  0
  5  6  1  0  0  0  0
  5 30  1  0  0  0  0
  6  7  1  0  0  0  0
  7  8  2  0  0  0  0
  7 45  1  0  0  0  0
  9 10  2  0  0  0  0
  9 25  1  0  0  0  0
 10 11  1  0  0  0  0
 10 31  1  0  0  0  0
 11 15  1  0  0  0  0
 11 12  2  0  0  0  0
 12 13  1  0  0  0  0
 12 21  1  0  0  0  0
 13 20  1  0  0  0  0
 13 14  2  0  0  0  0
 14 15  1  0  0  0  0
 14 17  1  0  0  0  0
 15 16  1  0  0  0  0
 17 18  1  0  0  0  0
 17 32  1  0  0  0  0
 17 33  1  0  0  0  0
 18 19  1  0  0  0  0
 18 34  1  0  0  0  0
 18 35  1  0  0  0  0
 19 20  1  0  0  0  0
 19 36  1  0  0  0  0
 19 37  1  0  0  0  0
 20 38  1  0  0  0  0
 20 39  1  0  0  0  0
 21 22  1  0  0  0  0
 21 40  1  0  0  0  0
 21 41  1  0  0  0  0
 22 23  1  0  0  0  0
 22 42  1  0  0  0  0
 22 43  1  0  0  0  0
 23 24  2  0  0  0  0
 23 46  1  0  0  0  0
 25 26  2  0  0  0  0
 25 27  1  0  0  0  0
 27 44  1  0  0  0  0
M  CHG  2  45  -1  46  -1
M  END
$$$$
