ZINC03815482
  -OEChem-08230709403D

 66 69  0     0  0  0  0  0  0999 V2000
    2.0264    8.2096    2.3954 C   0  0  0  0  0  0  0  0  0  0  0  0
    2.4026    8.1290    0.9145 C   0  0  0  0  0  0  0  0  0  0  0  0
    3.6471    7.3702    0.7675 N   0  0  0  0  0  0  0  0  0  0  0  0
    3.5968    6.0100    0.5949 C   0  0  0  0  0  0  0  0  0  0  0  0
    4.7868    5.2639    0.4516 C   0  0  0  0  0  0  0  0  0  0  0  0
    6.0418    5.9134    0.4849 C   0  0  0  0  0  0  0  0  0  0  0  0
    6.0821    7.2712    0.6566 C   0  0  0  0  0  0  0  0  0  0  0  0
    4.8291    8.0151    0.8026 C   0  0  0  0  0  0  0  0  0  0  0  0
    4.8560    9.2232    0.9562 O   0  0  0  0  0  0  0  0  0  0  0  0
    7.3818    7.9814    0.6954 C   0  0  0  0  0  0  0  0  0  0  0  0
    8.0419    8.1688    1.9104 C   0  0  0  0  0  0  0  0  0  0  0  0
    9.2555    8.8276    1.9390 C   0  0  0  0  0  0  0  0  0  0  0  0
    9.8119    9.3099    0.7680 C   0  0  0  0  0  0  0  0  0  0  0  0
    9.1599    9.1324   -0.4390 C   0  0  0  0  0  0  0  0  0  0  0  0
    7.9483    8.4708   -0.4822 C   0  0  0  0  0  0  0  0  0  0  0  0
    7.1317    8.2492   -1.9980 Cl  0  0  0  0  0  0  0  0  0  0  0  0
    7.3425    7.5696    3.3820 Cl  0  0  0  0  0  0  0  0  0  0  0  0
    4.6913    3.8752    0.2767 C   0  0  0  0  0  0  0  0  0  0  0  0
    3.4930    3.3223    0.2532 N   0  0  0  0  0  0  0  0  0  0  0  0
    2.3941    4.0562    0.3912 C   0  0  0  0  0  0  0  0  0  0  0  0
    2.4337    5.3699    0.5536 N   0  0  0  0  0  0  0  0  0  0  0  0
    1.1651    3.4265    0.3585 N   0  0  0  0  0  0  0  0  0  0  0  0
    1.0957    2.0296    0.2920 C   0  0  0  0  0  0  0  0  0  0  0  0
    2.0510    1.2551    0.9368 C   0  0  0  0  0  0  0  0  0  0  0  0
    1.9816   -0.1226    0.8710 C   0  0  0  0  0  0  0  0  0  0  0  0
    0.9576   -0.7327    0.1615 C   0  0  0  0  0  0  0  0  0  0  0  0
    0.0029    0.0403   -0.4828 C   0  0  0  0  0  0  0  0  0  0  0  0
    0.0711    1.4180   -0.4184 C   0  0  0  0  0  0  0  0  0  0  0  0
    0.8894   -2.0893    0.0980 O   0  0  0  0  0  0  0  0  0  0  0  0
   -0.1914   -2.6503   -0.6498 C   0  0  0  0  0  0  0  0  0  0  0  0
   -0.0357   -4.1712   -0.7085 C   0  0  0  0  0  0  0  0  0  0  0  0
   -1.5478   -4.7397    1.0951 C   0  0  0  0  0  0  0  0  0  0  0  0
   -1.6026   -5.0866    2.5842 C   0  0  0  0  0  0  0  0  0  0  0  0
    0.4370   -6.0731    0.7135 C   0  0  0  0  0  0  0  0  0  0  0  0
    1.9503   -5.9810    0.5078 C   0  0  0  0  0  0  0  0  0  0  0  0
    2.8235    8.7089    2.9461 H   0  0  0  0  0  0  0  0  0  0  0  0
    1.1004    8.7741    2.5048 H   0  0  0  0  0  0  0  0  0  0  0  0
    1.8872    7.2032    2.7902 H   0  0  0  0  0  0  0  0  0  0  0  0
    2.5418    9.1353    0.5197 H   0  0  0  0  0  0  0  0  0  0  0  0
    1.6054    7.6296    0.3638 H   0  0  0  0  0  0  0  0  0  0  0  0
    6.9551    5.3474    0.3754 H   0  0  0  0  0  0  0  0  0  0  0  0
    9.7695    8.9697    2.8782 H   0  0  0  0  0  0  0  0  0  0  0  0
   10.7593    9.8276    0.7963 H   0  0  0  0  0  0  0  0  0  0  0  0
    9.5995    9.5117   -1.3497 H   0  0  0  0  0  0  0  0  0  0  0  0
    5.5795    3.2713    0.1634 H   0  0  0  0  0  0  0  0  0  0  0  0
    0.3501    3.9521    0.3817 H   0  0  0  0  0  0  0  0  0  0  0  0
    2.8456    1.7299    1.4932 H   0  0  0  0  0  0  0  0  0  0  0  0
    2.7245   -0.7251    1.3724 H   0  0  0  0  0  0  0  0  0  0  0  0
   -0.7939   -0.4355   -1.0353 H   0  0  0  0  0  0  0  0  0  0  0  0
   -0.6721    2.0197   -0.9205 H   0  0  0  0  0  0  0  0  0  0  0  0
   -1.1359   -2.4001   -0.1667 H   0  0  0  0  0  0  0  0  0  0  0  0
   -0.1822   -2.2448   -1.6616 H   0  0  0  0  0  0  0  0  0  0  0  0
   -0.8173   -4.5923   -1.3409 H   0  0  0  0  0  0  0  0  0  0  0  0
    0.9410   -4.4207   -1.1233 H   0  0  0  0  0  0  0  0  0  0  0  0
   -1.9893   -3.7562    0.9346 H   0  0  0  0  0  0  0  0  0  0  0  0
   -2.1051   -5.4851    0.5277 H   0  0  0  0  0  0  0  0  0  0  0  0
   -1.1610   -6.0702    2.7447 H   0  0  0  0  0  0  0  0  0  0  0  0
   -1.0453   -4.3412    3.1517 H   0  0  0  0  0  0  0  0  0  0  0  0
   -2.6404   -5.0955    2.9173 H   0  0  0  0  0  0  0  0  0  0  0  0
    0.2290   -6.5116    1.6895 H   0  0  0  0  0  0  0  0  0  0  0  0
    0.0017   -6.6984   -0.0660 H   0  0  0  0  0  0  0  0  0  0  0  0
    2.1588   -5.4709   -0.4327 H   0  0  0  0  0  0  0  0  0  0  0  0
    2.3955   -5.4219    1.3308 H   0  0  0  0  0  0  0  0  0  0  0  0
    2.3747   -6.9845    0.4787 H   0  0  0  0  0  0  0  0  0  0  0  0
   -0.1342   -4.7107    0.6640 N   0  3  0  0  0  0  0  0  0  0  0  0
    0.3960   -4.1035    1.2999 H   0  0  0  0  0  0  0  0  0  0  0  0
  1  2  1  0  0  0  0
  1 36  1  0  0  0  0
  1 37  1  0  0  0  0
  1 38  1  0  0  0  0
  2  3  1  0  0  0  0
  2 39  1  0  0  0  0
  2 40  1  0  0  0  0
  3  8  1  0  0  0  0
  3  4  1  0  0  0  0
  4 21  2  0  0  0  0
  4  5  1  0  0  0  0
  5  6  1  0  0  0  0
  5 18  2  0  0  0  0
  6  7  2  0  0  0  0
  6 41  1  0  0  0  0
  7  8  1  0  0  0  0
  7 10  1  0  0  0  0
  8  9  2  0  0  0  0
 10 15  2  0  0  0  0
 10 11  1  0  0  0  0
 11 12  2  0  0  0  0
 11 17  1  0  0  0  0
 12 13  1  0  0  0  0
 12 42  1  0  0  0  0
 13 14  2  0  0  0  0
 13 43  1  0  0  0  0
 14 15  1  0  0  0  0
 14 44  1  0  0  0  0
 15 16  1  0  0  0  0
 18 19  1  0  0  0  0
 18 45  1  0  0  0  0
 19 20  2  0  0  0  0
 20 21  1  0  0  0  0
 20 22  1  0  0  0  0
 22 23  1  0  0  0  0
 22 46  1  0  0  0  0
 23 28  2  0  0  0  0
 23 24  1  0  0  0  0
 24 25  2  0  0  0  0
 24 47  1  0  0  0  0
 25 26  1  0  0  0  0
 25 48  1  0  0  0  0
 26 27  2  0  0  0  0
 26 29  1  0  0  0  0
 27 28  1  0  0  0  0
 27 49  1  0  0  0  0
 28 50  1  0  0  0  0
 29 30  1  0  0  0  0
 30 31  1  0  0  0  0
 30 51  1  0  0  0  0
 30 52  1  0  0  0  0
 31 53  1  0  0  0  0
 31 54  1  0  0  0  0
 31 65  1  0  0  0  0
 32 33  1  0  0  0  0
 32 55  1  0  0  0  0
 32 56  1  0  0  0  0
 32 65  1  0  0  0  0
 33 57  1  0  0  0  0
 33 58  1  0  0  0  0
 33 59  1  0  0  0  0
 34 35  1  0  0  0  0
 34 60  1  0  0  0  0
 34 61  1  0  0  0  0
 34 65  1  0  0  0  0
 35 62  1  0  0  0  0
 35 63  1  0  0  0  0
 35 64  1  0  0  0  0
 65 66  1  0  0  0  0
M  CHG  1  65   1
M  END
$$$$
