ZINC03815496
  -OEChem-08230709403D

 63 66  0     0  0  0  0  0  0999 V2000
    3.3701   -6.4009   -1.6428 C   0  0  0  0  0  0  0  0  0  0  0  0
    2.0772   -5.6702   -2.0107 C   0  0  0  0  0  0  0  0  0  0  0  0
    2.2699   -4.2228   -1.8496 N   0  3  0  0  0  0  0  0  0  0  0  0
    1.0167   -3.5240   -2.1643 C   0  0  0  0  0  0  0  0  0  0  0  0
    0.5330   -3.9449   -3.5534 C   0  0  0  0  0  0  0  0  0  0  0  0
    2.6579   -3.9319   -0.4629 C   0  0  0  0  0  0  0  0  0  0  0  0
    2.8370   -2.4224   -0.2895 C   0  0  0  0  0  0  0  0  0  0  0  0
    1.5656   -1.7774   -0.3882 O   0  0  0  0  0  0  0  0  0  0  0  0
    1.5479   -0.4242   -0.2556 C   0  0  0  0  0  0  0  0  0  0  0  0
    0.3470    0.2650   -0.3408 C   0  0  0  0  0  0  0  0  0  0  0  0
    0.3283    1.6393   -0.2072 C   0  0  0  0  0  0  0  0  0  0  0  0
    1.5119    2.3313    0.0132 C   0  0  0  0  0  0  0  0  0  0  0  0
    2.7135    1.6406    0.0988 C   0  0  0  0  0  0  0  0  0  0  0  0
    2.7306    0.2663   -0.0355 C   0  0  0  0  0  0  0  0  0  0  0  0
    1.4938    3.7249    0.1484 N   0  0  0  0  0  0  0  0  0  0  0  0
    0.4203    4.3459    0.7568 C   0  0  0  0  0  0  0  0  0  0  0  0
   -0.5250    3.5935    1.3101 N   0  0  0  0  0  0  0  0  0  0  0  0
   -1.5707    4.1372    1.9036 C   0  0  0  0  0  0  0  0  0  0  0  0
   -1.6691    5.5366    1.9415 C   0  0  0  0  0  0  0  0  0  0  0  0
   -2.7651    6.1772    2.5632 C   0  0  0  0  0  0  0  0  0  0  0  0
   -2.8152    7.5454    2.5742 C   0  0  0  0  0  0  0  0  0  0  0  0
   -1.7364    8.3095    1.9441 C   0  0  0  0  0  0  0  0  0  0  0  0
   -1.7728    9.5270    1.9497 O   0  0  0  0  0  0  0  0  0  0  0  0
   -0.7039    7.6726    1.3589 N   0  0  0  0  0  0  0  0  0  0  0  0
   -0.6453    6.3019    1.3430 C   0  0  0  0  0  0  0  0  0  0  0  0
    0.3738    5.6690    0.7721 N   0  0  0  0  0  0  0  0  0  0  0  0
    0.3677    8.4514    0.7333 C   0  0  0  0  0  0  0  0  0  0  0  0
   -3.9509    8.2466    3.2174 C   0  0  0  0  0  0  0  0  0  0  0  0
   -5.0868    8.5694    2.4739 C   0  0  0  0  0  0  0  0  0  0  0  0
   -6.1437    9.2193    3.0806 C   0  0  0  0  0  0  0  0  0  0  0  0
   -6.0741    9.5587    4.4198 C   0  0  0  0  0  0  0  0  0  0  0  0
   -4.9488    9.2463    5.1612 C   0  0  0  0  0  0  0  0  0  0  0  0
   -3.8869    8.5922    4.5678 C   0  0  0  0  0  0  0  0  0  0  0  0
   -2.4753    8.2016    5.4998 Cl  0  0  0  0  0  0  0  0  0  0  0  0
   -5.1734    8.1503    0.7915 Cl  0  0  0  0  0  0  0  0  0  0  0  0
    3.3235   -3.7672   -2.7566 O   0  5  0  0  0  0  0  0  0  0  0  0
    4.1948   -5.9989   -2.2313 H   0  0  0  0  0  0  0  0  0  0  0  0
    3.5780   -6.2598   -0.5822 H   0  0  0  0  0  0  0  0  0  0  0  0
    3.2586   -7.4647   -1.8527 H   0  0  0  0  0  0  0  0  0  0  0  0
    1.2721   -6.0046   -1.3565 H   0  0  0  0  0  0  0  0  0  0  0  0
    1.8183   -5.8892   -3.0467 H   0  0  0  0  0  0  0  0  0  0  0  0
    0.2607   -3.7819   -1.4227 H   0  0  0  0  0  0  0  0  0  0  0  0
    1.1875   -2.4475   -2.1498 H   0  0  0  0  0  0  0  0  0  0  0  0
   -0.3969   -3.4264   -3.7869 H   0  0  0  0  0  0  0  0  0  0  0  0
    1.2890   -3.6869   -4.2950 H   0  0  0  0  0  0  0  0  0  0  0  0
    0.3622   -5.0214   -3.5679 H   0  0  0  0  0  0  0  0  0  0  0  0
    3.5961   -4.4377   -0.2344 H   0  0  0  0  0  0  0  0  0  0  0  0
    1.8802   -4.2857    0.2138 H   0  0  0  0  0  0  0  0  0  0  0  0
    3.4983   -2.0430   -1.0685 H   0  0  0  0  0  0  0  0  0  0  0  0
    3.2730   -2.2182    0.6884 H   0  0  0  0  0  0  0  0  0  0  0  0
   -0.5734   -0.2734   -0.5122 H   0  0  0  0  0  0  0  0  0  0  0  0
   -0.6061    2.1762   -0.2784 H   0  0  0  0  0  0  0  0  0  0  0  0
    3.6344    2.1780    0.2705 H   0  0  0  0  0  0  0  0  0  0  0  0
    3.6651   -0.2710    0.0311 H   0  0  0  0  0  0  0  0  0  0  0  0
    2.2350    4.2542   -0.1852 H   0  0  0  0  0  0  0  0  0  0  0  0
   -2.3343    3.5184    2.3511 H   0  0  0  0  0  0  0  0  0  0  0  0
   -3.5513    5.5961    3.0222 H   0  0  0  0  0  0  0  0  0  0  0  0
    0.1217    8.6330   -0.3129 H   0  0  0  0  0  0  0  0  0  0  0  0
    0.4749    9.4041    1.2520 H   0  0  0  0  0  0  0  0  0  0  0  0
    1.3039    7.8966    0.7954 H   0  0  0  0  0  0  0  0  0  0  0  0
   -7.0251    9.4661    2.5074 H   0  0  0  0  0  0  0  0  0  0  0  0
   -6.9018   10.0702    4.8885 H   0  0  0  0  0  0  0  0  0  0  0  0
   -4.9004    9.5146    6.2062 H   0  0  0  0  0  0  0  0  0  0  0  0
  1  2  1  0  0  0  0
  1 37  1  0  0  0  0
  1 38  1  0  0  0  0
  1 39  1  0  0  0  0
  2  3  1  0  0  0  0
  2 40  1  0  0  0  0
  2 41  1  0  0  0  0
  3  4  1  0  0  0  0
  3  6  1  0  0  0  0
  3 36  1  0  0  0  0
  4  5  1  0  0  0  0
  4 42  1  0  0  0  0
  4 43  1  0  0  0  0
  5 44  1  0  0  0  0
  5 45  1  0  0  0  0
  5 46  1  0  0  0  0
  6  7  1  0  0  0  0
  6 47  1  0  0  0  0
  6 48  1  0  0  0  0
  7  8  1  0  0  0  0
  7 49  1  0  0  0  0
  7 50  1  0  0  0  0
  8  9  1  0  0  0  0
  9 14  2  0  0  0  0
  9 10  1  0  0  0  0
 10 11  2  0  0  0  0
 10 51  1  0  0  0  0
 11 12  1  0  0  0  0
 11 52  1  0  0  0  0
 12 13  2  0  0  0  0
 12 15  1  0  0  0  0
 13 14  1  0  0  0  0
 13 53  1  0  0  0  0
 14 54  1  0  0  0  0
 15 16  1  0  0  0  0
 15 55  1  0  0  0  0
 16 26  2  0  0  0  0
 16 17  1  0  0  0  0
 17 18  2  0  0  0  0
 18 19  1  0  0  0  0
 18 56  1  0  0  0  0
 19 25  2  0  0  0  0
 19 20  1  0  0  0  0
 20 21  2  0  0  0  0
 20 57  1  0  0  0  0
 21 22  1  0  0  0  0
 21 28  1  0  0  0  0
 22 23  2  0  0  0  0
 22 24  1  0  0  0  0
 24 25  1  0  0  0  0
 24 27  1  0  0  0  0
 25 26  1  0  0  0  0
 27 58  1  0  0  0  0
 27 59  1  0  0  0  0
 27 60  1  0  0  0  0
 28 33  2  0  0  0  0
 28 29  1  0  0  0  0
 29 30  2  0  0  0  0
 29 35  1  0  0  0  0
 30 31  1  0  0  0  0
 30 61  1  0  0  0  0
 31 32  2  0  0  0  0
 31 62  1  0  0  0  0
 32 33  1  0  0  0  0
 32 63  1  0  0  0  0
 33 34  1  0  0  0  0
M  CHG  2   3   1  36  -1
M  END
$$$$
