ZINC03815565
  -OEChem-08230709403D

 39 41  0     0  0  0  0  0  0999 V2000
    4.4362    7.7127    0.2354 C   0  0  0  0  0  0  0  0  0  0  0  0
    5.0823    6.3520    0.1890 C   0  0  0  0  0  0  0  0  0  0  0  0
    6.4507    6.0808    0.2437 C   0  0  0  0  0  0  0  0  0  0  0  0
    6.6138    4.7361    0.1729 C   0  0  0  0  0  0  0  0  0  0  0  0
    5.3944    4.1482    0.0805 N   0  0  0  0  0  0  0  0  0  0  0  0
    5.2291    3.1943    0.0201 H   0  0  0  0  0  0  0  0  0  0  0  0
    4.4301    5.1331    0.0835 C   0  0  0  0  0  0  0  0  0  0  0  0
    3.0361    4.9367    0.0006 C   0  0  0  0  0  0  0  0  0  0  0  0
    2.5287    3.8944   -0.7511 C   0  0  0  0  0  0  0  0  0  0  0  0
    1.1210    3.4433   -0.8323 C   0  0  0  0  0  0  0  0  0  0  0  0
   -0.0514    3.8796   -0.2335 C   0  0  0  0  0  0  0  0  0  0  0  0
   -1.2539    3.2310   -0.5188 C   0  0  0  0  0  0  0  0  0  0  0  0
   -1.2667    2.1507   -1.4092 C   0  0  0  0  0  0  0  0  0  0  0  0
   -0.1017    1.7173   -1.9971 C   0  0  0  0  0  0  0  0  0  0  0  0
    1.1059    2.3563   -1.7212 C   0  0  0  0  0  0  0  0  0  0  0  0
    2.3933    2.1239   -2.1763 N   0  0  0  0  0  0  0  0  0  0  0  0
    3.2685    2.9926   -1.6431 C   0  0  0  0  0  0  0  0  0  0  0  0
    4.4665    3.0263   -1.8614 O   0  0  0  0  0  0  0  0  0  0  0  0
   -2.5076    3.6857    0.1111 C   0  0  0  0  0  0  0  0  0  0  0  0
   -2.4948    4.6264    0.8800 O   0  0  0  0  0  0  0  0  0  0  0  0
    7.5526    7.1022    0.3604 C   0  0  0  0  0  0  0  0  0  0  0  0
    7.7661    7.4561    1.8335 C   0  0  0  0  0  0  0  0  0  0  0  0
    8.8680    8.4775    1.9502 C   0  0  0  0  0  0  0  0  0  0  0  0
    9.4254    8.8809    0.9570 O   0  0  0  0  0  0  0  0  0  0  0  0
    4.2275    7.9807    1.2711 H   0  0  0  0  0  0  0  0  0  0  0  0
    5.1096    8.4498   -0.2021 H   0  0  0  0  0  0  0  0  0  0  0  0
    3.5041    7.6918   -0.3293 H   0  0  0  0  0  0  0  0  0  0  0  0
    7.5607    4.2172    0.1913 H   0  0  0  0  0  0  0  0  0  0  0  0
    2.3651    5.6011    0.5248 H   0  0  0  0  0  0  0  0  0  0  0  0
   -0.0340    4.7158    0.4497 H   0  0  0  0  0  0  0  0  0  0  0  0
   -2.1980    1.6518   -1.6332 H   0  0  0  0  0  0  0  0  0  0  0  0
   -0.1231    0.8805   -2.6795 H   0  0  0  0  0  0  0  0  0  0  0  0
    2.6328    1.4222   -2.8017 H   0  0  0  0  0  0  0  0  0  0  0  0
    8.4741    6.6911   -0.0518 H   0  0  0  0  0  0  0  0  0  0  0  0
    7.2760    7.9999   -0.1925 H   0  0  0  0  0  0  0  0  0  0  0  0
    6.8445    7.8671    2.2457 H   0  0  0  0  0  0  0  0  0  0  0  0
    8.0427    6.5584    2.3864 H   0  0  0  0  0  0  0  0  0  0  0  0
   -3.6672    3.0579   -0.1660 O   0  5  0  0  0  0  0  0  0  0  0  0
    9.2303    8.9390    3.1574 O   0  5  0  0  0  0  0  0  0  0  0  0
  1  2  1  0  0  0  0
  1 25  1  0  0  0  0
  1 26  1  0  0  0  0
  1 27  1  0  0  0  0
  2  7  2  0  0  0  0
  2  3  1  0  0  0  0
  3  4  2  0  0  0  0
  3 21  1  0  0  0  0
  4  5  1  0  0  0  0
  4 28  1  0  0  0  0
  5  6  1  0  0  0  0
  5  7  1  0  0  0  0
  7  8  1  0  0  0  0
  8  9  2  0  0  0  0
  8 29  1  0  0  0  0
  9 17  1  0  0  0  0
  9 10  1  0  0  0  0
 10 15  2  0  0  0  0
 10 11  1  0  0  0  0
 11 12  2  0  0  0  0
 11 30  1  0  0  0  0
 12 13  1  0  0  0  0
 12 19  1  0  0  0  0
 13 14  2  0  0  0  0
 13 31  1  0  0  0  0
 14 15  1  0  0  0  0
 14 32  1  0  0  0  0
 15 16  1  0  0  0  0
 16 17  1  0  0  0  0
 16 33  1  0  0  0  0
 17 18  2  0  0  0  0
 19 20  2  0  0  0  0
 19 38  1  0  0  0  0
 21 22  1  0  0  0  0
 21 34  1  0  0  0  0
 21 35  1  0  0  0  0
 22 23  1  0  0  0  0
 22 36  1  0  0  0  0
 22 37  1  0  0  0  0
 23 24  2  0  0  0  0
 23 39  1  0  0  0  0
M  CHG  2  38  -1  39  -1
M  END
$$$$
