ZINC03815529
  -OEChem-08230709403D

 68 72  0     0  0  0  0  0  0999 V2000
    8.0418    5.9497   -0.5473 C   0  0  0  0  0  0  0  0  0  0  0  0
    8.9067    5.0536   -1.3186 N   0  0  0  0  0  0  0  0  0  0  0  0
    8.5795    3.7222   -1.4350 C   0  0  0  0  0  0  0  0  0  0  0  0
    7.4375    3.2089   -0.8317 C   0  0  0  0  0  0  0  0  0  0  0  0
    7.1507    1.8590   -0.9789 C   0  0  0  0  0  0  0  0  0  0  0  0
    7.9443    1.0575   -1.6819 N   0  0  0  0  0  0  0  0  0  0  0  0
    9.0356    1.4935   -2.2718 C   0  0  0  0  0  0  0  0  0  0  0  0
    9.4002    2.8422   -2.1740 C   0  0  0  0  0  0  0  0  0  0  0  0
   10.5707    3.3287   -2.8027 C   0  0  0  0  0  0  0  0  0  0  0  0
   10.8893    4.6540   -2.6823 C   0  0  0  0  0  0  0  0  0  0  0  0
   10.0135    5.5409   -1.9131 C   0  0  0  0  0  0  0  0  0  0  0  0
   10.2891    6.7227   -1.8064 O   0  0  0  0  0  0  0  0  0  0  0  0
   12.1092    5.1895   -3.3305 C   0  0  0  0  0  0  0  0  0  0  0  0
   13.3211    5.2047   -2.6389 C   0  0  0  0  0  0  0  0  0  0  0  0
   14.4557    5.7004   -3.2508 C   0  0  0  0  0  0  0  0  0  0  0  0
   14.3903    6.1908   -4.5426 C   0  0  0  0  0  0  0  0  0  0  0  0
   13.1909    6.1839   -5.2317 C   0  0  0  0  0  0  0  0  0  0  0  0
   12.0500    5.6862   -4.6332 C   0  0  0  0  0  0  0  0  0  0  0  0
   10.5456    5.6790   -5.4995 Cl  0  0  0  0  0  0  0  0  0  0  0  0
   13.4037    4.5962   -1.0151 Cl  0  0  0  0  0  0  0  0  0  0  0  0
    6.0130    1.3360   -0.3808 N   0  0  0  0  0  0  0  0  0  0  0  0
    5.7805   -0.0442   -0.4059 C   0  0  0  0  0  0  0  0  0  0  0  0
    4.4834   -0.5284   -0.5135 C   0  0  0  0  0  0  0  0  0  0  0  0
    4.2553   -1.8900   -0.5426 C   0  0  0  0  0  0  0  0  0  0  0  0
    5.3206   -2.7741   -0.4547 C   0  0  0  0  0  0  0  0  0  0  0  0
    6.6161   -2.2914   -0.3420 C   0  0  0  0  0  0  0  0  0  0  0  0
    6.8464   -0.9300   -0.3175 C   0  0  0  0  0  0  0  0  0  0  0  0
    5.0947   -4.1149   -0.4787 O   0  0  0  0  0  0  0  0  0  0  0  0
    3.7361   -4.5419   -0.5967 C   0  0  0  0  0  0  0  0  0  0  0  0
    3.6810   -6.0709   -0.6067 C   0  0  0  0  0  0  0  0  0  0  0  0
    4.5669   -7.9973    0.5634 C   0  0  0  0  0  0  0  0  0  0  0  0
    5.1438   -8.4731    1.8988 C   0  0  0  0  0  0  0  0  0  0  0  0
    3.7411   -6.8860    3.0702 C   0  0  0  0  0  0  0  0  0  0  0  0
    3.1642   -6.4102    1.7348 C   0  0  0  0  0  0  0  0  0  0  0  0
    4.6270   -8.8124    4.2403 C   0  0  0  0  0  0  0  0  0  0  0  0
    8.3690    5.9647    0.4923 H   0  0  0  0  0  0  0  0  0  0  0  0
    8.1003    6.9564   -0.9612 H   0  0  0  0  0  0  0  0  0  0  0  0
    7.0125    5.5948   -0.5992 H   0  0  0  0  0  0  0  0  0  0  0  0
    6.7844    3.8496   -0.2578 H   0  0  0  0  0  0  0  0  0  0  0  0
    9.6533    0.8088   -2.8339 H   0  0  0  0  0  0  0  0  0  0  0  0
   11.2045    2.6629   -3.3696 H   0  0  0  0  0  0  0  0  0  0  0  0
   15.3952    5.7086   -2.7183 H   0  0  0  0  0  0  0  0  0  0  0  0
   15.2796    6.5811   -5.0151 H   0  0  0  0  0  0  0  0  0  0  0  0
   13.1466    6.5683   -6.2400 H   0  0  0  0  0  0  0  0  0  0  0  0
    5.3789    1.9268    0.0548 H   0  0  0  0  0  0  0  0  0  0  0  0
    3.6535    0.1598   -0.5782 H   0  0  0  0  0  0  0  0  0  0  0  0
    3.2469   -2.2667   -0.6304 H   0  0  0  0  0  0  0  0  0  0  0  0
    7.4449   -2.9804   -0.2729 H   0  0  0  0  0  0  0  0  0  0  0  0
    7.8552   -0.5543   -0.2301 H   0  0  0  0  0  0  0  0  0  0  0  0
    3.1615   -4.1631    0.2486 H   0  0  0  0  0  0  0  0  0  0  0  0
    3.3136   -4.1570   -1.5249 H   0  0  0  0  0  0  0  0  0  0  0  0
    2.6523   -6.3964   -0.7607 H   0  0  0  0  0  0  0  0  0  0  0  0
    4.3073   -6.4517   -1.4134 H   0  0  0  0  0  0  0  0  0  0  0  0
    3.6955   -8.6002    0.3082 H   0  0  0  0  0  0  0  0  0  0  0  0
    5.3217   -8.1004   -0.2162 H   0  0  0  0  0  0  0  0  0  0  0  0
    6.0313   -7.8881    2.1406 H   0  0  0  0  0  0  0  0  0  0  0  0
    5.4117   -9.5270    1.8243 H   0  0  0  0  0  0  0  0  0  0  0  0
    4.6126   -6.2831    3.3253 H   0  0  0  0  0  0  0  0  0  0  0  0
    2.9864   -6.7825    3.8499 H   0  0  0  0  0  0  0  0  0  0  0  0
    2.8963   -5.3563    1.8093 H   0  0  0  0  0  0  0  0  0  0  0  0
    2.2766   -6.9948    1.4928 H   0  0  0  0  0  0  0  0  0  0  0  0
    3.8386   -8.7309    4.9885 H   0  0  0  0  0  0  0  0  0  0  0  0
    4.9135   -9.8579    4.1267 H   0  0  0  0  0  0  0  0  0  0  0  0
    5.4922   -8.2312    4.5593 H   0  0  0  0  0  0  0  0  0  0  0  0
    4.1934   -6.5726    0.6863 N   0  3  0  0  0  0  0  0  0  0  0  0
    5.0253   -6.0308    0.9483 H   0  0  0  0  0  0  0  0  0  0  0  0
    4.1148   -8.3108    2.9472 N   0  3  0  0  0  0  0  0  0  0  0  0
    3.2829   -8.8527    2.6851 H   0  0  0  0  0  0  0  0  0  0  0  0
  1  2  1  0  0  0  0
  1 36  1  0  0  0  0
  1 37  1  0  0  0  0
  1 38  1  0  0  0  0
  2 11  1  0  0  0  0
  2  3  1  0  0  0  0
  3  8  2  0  0  0  0
  3  4  1  0  0  0  0
  4  5  2  0  0  0  0
  4 39  1  0  0  0  0
  5  6  1  0  0  0  0
  5 21  1  0  0  0  0
  6  7  2  0  0  0  0
  7  8  1  0  0  0  0
  7 40  1  0  0  0  0
  8  9  1  0  0  0  0
  9 10  2  0  0  0  0
  9 41  1  0  0  0  0
 10 11  1  0  0  0  0
 10 13  1  0  0  0  0
 11 12  2  0  0  0  0
 13 18  2  0  0  0  0
 13 14  1  0  0  0  0
 14 15  2  0  0  0  0
 14 20  1  0  0  0  0
 15 16  1  0  0  0  0
 15 42  1  0  0  0  0
 16 17  2  0  0  0  0
 16 43  1  0  0  0  0
 17 18  1  0  0  0  0
 17 44  1  0  0  0  0
 18 19  1  0  0  0  0
 21 22  1  0  0  0  0
 21 45  1  0  0  0  0
 22 27  2  0  0  0  0
 22 23  1  0  0  0  0
 23 24  2  0  0  0  0
 23 46  1  0  0  0  0
 24 25  1  0  0  0  0
 24 47  1  0  0  0  0
 25 26  2  0  0  0  0
 25 28  1  0  0  0  0
 26 27  1  0  0  0  0
 26 48  1  0  0  0  0
 27 49  1  0  0  0  0
 28 29  1  0  0  0  0
 29 30  1  0  0  0  0
 29 50  1  0  0  0  0
 29 51  1  0  0  0  0
 30 52  1  0  0  0  0
 30 53  1  0  0  0  0
 30 65  1  0  0  0  0
 31 32  1  0  0  0  0
 31 54  1  0  0  0  0
 31 55  1  0  0  0  0
 31 65  1  0  0  0  0
 32 56  1  0  0  0  0
 32 57  1  0  0  0  0
 32 67  1  0  0  0  0
 33 34  1  0  0  0  0
 33 58  1  0  0  0  0
 33 59  1  0  0  0  0
 33 67  1  0  0  0  0
 34 60  1  0  0  0  0
 34 61  1  0  0  0  0
 34 65  1  0  0  0  0
 35 62  1  0  0  0  0
 35 63  1  0  0  0  0
 35 64  1  0  0  0  0
 35 67  1  0  0  0  0
 65 66  1  0  0  0  0
 67 68  1  0  0  0  0
M  CHG  2  65   1  67   1
M  END
$$$$
