ZINC03815534
  -OEChem-08230709403D

 59 62  0     0  0  0  0  0  0999 V2000
    0.0021   -0.0041    0.0020 C   0  0  0  0  0  0  0  0  0  0  0  0
   -0.0178    1.4608    0.0101 N   0  0  0  0  0  0  0  0  0  0  0  0
   -1.2216    2.1269    0.0194 C   0  0  0  0  0  0  0  0  0  0  0  0
   -2.4255    1.4324    0.0320 C   0  0  0  0  0  0  0  0  0  0  0  0
   -3.6131    2.1500    0.0463 C   0  0  0  0  0  0  0  0  0  0  0  0
   -2.5054    4.1825    0.0466 C   0  0  0  0  0  0  0  0  0  0  0  0
   -1.2621    3.5384    0.0322 C   0  0  0  0  0  0  0  0  0  0  0  0
   -0.0566    4.2794    0.0247 C   0  0  0  0  0  0  0  0  0  0  0  0
    1.1365    3.6096    0.0101 C   0  0  0  0  0  0  0  0  0  0  0  0
    1.1430    2.1450    0.0027 C   0  0  0  0  0  0  0  0  0  0  0  0
    2.2020    1.5430   -0.0099 O   0  0  0  0  0  0  0  0  0  0  0  0
    2.4133    4.3610    0.0015 C   0  0  0  0  0  0  0  0  0  0  0  0
    3.0084    4.7175   -1.2093 C   0  0  0  0  0  0  0  0  0  0  0  0
    4.1956    5.4234   -1.2103 C   0  0  0  0  0  0  0  0  0  0  0  0
    4.8007    5.7666   -0.0147 C   0  0  0  0  0  0  0  0  0  0  0  0
    4.2192    5.4109    1.1890 C   0  0  0  0  0  0  0  0  0  0  0  0
    3.0290    4.7103    1.2040 C   0  0  0  0  0  0  0  0  0  0  0  0
    2.3008    4.2649    2.7157 Cl  0  0  0  0  0  0  0  0  0  0  0  0
    2.2543    4.2815   -2.7109 Cl  0  0  0  0  0  0  0  0  0  0  0  0
   -4.8205    1.4669    0.0541 N   0  0  0  0  0  0  0  0  0  0  0  0
   -4.8333    0.0019    0.0468 C   0  0  0  0  0  0  0  0  0  0  0  0
   -6.2801   -0.4955    0.0578 C   0  0  0  0  0  0  0  0  0  0  0  0
   -6.2935   -2.0254    0.0502 C   0  0  0  0  0  0  0  0  0  0  0  0
   -7.7403   -2.5229    0.0612 C   0  0  0  0  0  0  0  0  0  0  0  0
   -7.2193   -4.5171   -1.2112 C   0  0  0  0  0  0  0  0  0  0  0  0
   -7.1952   -6.0467   -1.1527 C   0  0  0  0  0  0  0  0  0  0  0  0
   -8.5135   -6.5291   -0.8796 O   0  0  0  0  0  0  0  0  0  0  0  0
   -9.0640   -6.0379    0.3456 C   0  0  0  0  0  0  0  0  0  0  0  0
   -9.1070   -4.5081    0.3023 C   0  0  0  0  0  0  0  0  0  0  0  0
    1.0345   -0.3534   -0.0097 H   0  0  0  0  0  0  0  0  0  0  0  0
   -0.4983   -0.3791    0.8948 H   0  0  0  0  0  0  0  0  0  0  0  0
   -0.5153   -0.3696   -0.8850 H   0  0  0  0  0  0  0  0  0  0  0  0
   -2.4366    0.3525    0.0263 H   0  0  0  0  0  0  0  0  0  0  0  0
   -2.5521    5.2614    0.0521 H   0  0  0  0  0  0  0  0  0  0  0  0
   -0.0780    5.3592    0.0300 H   0  0  0  0  0  0  0  0  0  0  0  0
    4.6545    5.7045   -2.1467 H   0  0  0  0  0  0  0  0  0  0  0  0
    5.7314    6.3144   -0.0210 H   0  0  0  0  0  0  0  0  0  0  0  0
    4.6967    5.6818    2.1190 H   0  0  0  0  0  0  0  0  0  0  0  0
   -5.6562    1.9591    0.0644 H   0  0  0  0  0  0  0  0  0  0  0  0
   -4.3310   -0.3613   -0.8498 H   0  0  0  0  0  0  0  0  0  0  0  0
   -4.3143   -0.3703    0.9301 H   0  0  0  0  0  0  0  0  0  0  0  0
   -6.7824   -0.1322    0.9544 H   0  0  0  0  0  0  0  0  0  0  0  0
   -6.7990   -0.1232   -0.8255 H   0  0  0  0  0  0  0  0  0  0  0  0
   -5.7912   -2.3887   -0.8464 H   0  0  0  0  0  0  0  0  0  0  0  0
   -5.7745   -2.3977    0.9335 H   0  0  0  0  0  0  0  0  0  0  0  0
   -8.2426   -2.1596    0.9578 H   0  0  0  0  0  0  0  0  0  0  0  0
   -8.2592   -2.1506   -0.8221 H   0  0  0  0  0  0  0  0  0  0  0  0
   -7.8544   -4.1943   -2.0362 H   0  0  0  0  0  0  0  0  0  0  0  0
   -6.2068   -4.1426   -1.3624 H   0  0  0  0  0  0  0  0  0  0  0  0
   -6.5182   -6.3701   -0.3621 H   0  0  0  0  0  0  0  0  0  0  0  0
   -6.8539   -6.4422   -2.1094 H   0  0  0  0  0  0  0  0  0  0  0  0
   -8.4413   -6.3610    1.1798 H   0  0  0  0  0  0  0  0  0  0  0  0
  -10.0743   -6.4269    0.4725 H   0  0  0  0  0  0  0  0  0  0  0  0
   -9.4725   -4.1272    1.2559 H   0  0  0  0  0  0  0  0  0  0  0  0
   -9.7723   -4.1852   -0.4985 H   0  0  0  0  0  0  0  0  0  0  0  0
   -3.6891    3.5189    0.0539 N   0  3  0  0  0  0  0  0  0  0  0  0
   -4.5890    4.0130    0.0644 H   0  0  0  0  0  0  0  0  0  0  0  0
   -7.7376   -4.0018    0.0738 N   0  3  0  0  0  0  0  0  0  0  0  0
   -7.1296   -4.3279    0.8342 H   0  0  0  0  0  0  0  0  0  0  0  0
  1  2  1  0  0  0  0
  1 30  1  0  0  0  0
  1 31  1  0  0  0  0
  1 32  1  0  0  0  0
  2 10  1  0  0  0  0
  2  3  1  0  0  0  0
  3  7  2  0  0  0  0
  3  4  1  0  0  0  0
  4  5  2  0  0  0  0
  4 33  1  0  0  0  0
  5 20  1  0  0  0  0
  5 56  1  0  0  0  0
  6  7  1  0  0  0  0
  6 34  1  0  0  0  0
  6 56  2  0  0  0  0
  7  8  1  0  0  0  0
  8  9  2  0  0  0  0
  8 35  1  0  0  0  0
  9 10  1  0  0  0  0
  9 12  1  0  0  0  0
 10 11  2  0  0  0  0
 12 17  2  0  0  0  0
 12 13  1  0  0  0  0
 13 14  2  0  0  0  0
 13 19  1  0  0  0  0
 14 15  1  0  0  0  0
 14 36  1  0  0  0  0
 15 16  2  0  0  0  0
 15 37  1  0  0  0  0
 16 17  1  0  0  0  0
 16 38  1  0  0  0  0
 17 18  1  0  0  0  0
 20 21  1  0  0  0  0
 20 39  1  0  0  0  0
 21 22  1  0  0  0  0
 21 40  1  0  0  0  0
 21 41  1  0  0  0  0
 22 23  1  0  0  0  0
 22 42  1  0  0  0  0
 22 43  1  0  0  0  0
 23 24  1  0  0  0  0
 23 44  1  0  0  0  0
 23 45  1  0  0  0  0
 24 46  1  0  0  0  0
 24 47  1  0  0  0  0
 24 58  1  0  0  0  0
 25 26  1  0  0  0  0
 25 48  1  0  0  0  0
 25 49  1  0  0  0  0
 25 58  1  0  0  0  0
 26 27  1  0  0  0  0
 26 50  1  0  0  0  0
 26 51  1  0  0  0  0
 27 28  1  0  0  0  0
 28 29  1  0  0  0  0
 28 52  1  0  0  0  0
 28 53  1  0  0  0  0
 29 54  1  0  0  0  0
 29 55  1  0  0  0  0
 29 58  1  0  0  0  0
 56 57  1  0  0  0  0
 58 59  1  0  0  0  0
M  CHG  2  56   1  58   1
M  END
$$$$
