
  ACD/Labs07171520343D

 48 51  0  0  0  0  0  0  0  0  1 V2000
   21.3472   -5.5318   65.4669 N   0  0  0  0  0  0  0  0  0  0  0  0
   17.3712   -5.6089   66.5450 N   0  0  0  0  0  0  0  0  0  0  0  0
   21.6801   -4.0228   68.7950 C   0  0  0  0  0  0  0  0  0  0  0  0
   22.0101   -4.5309   67.5229 C   0  0  0  0  0  0  0  0  0  0  0  0
   21.0021   -5.0378   66.6790 C   0  0  0  0  0  0  0  0  0  0  0  0
   20.4562   -6.0459   64.5849 C   0  0  0  0  0  0  0  0  0  0  0  0
   20.9932   -6.5438   63.2890 C   0  0  0  0  0  0  0  0  0  0  0  0
   19.9383   -7.2495   62.4084 C   0  0  0  0  0  0  0  0  0  0  0  0
   19.7711   -8.6718   62.8719 C   0  0  0  0  0  0  0  0  0  0  0  0
   18.8202   -9.0768   63.7509 C   0  0  0  0  0  0  0  0  0  0  0  0
   17.7972   -8.1248   64.2279 C   0  0  0  0  0  0  0  0  0  0  0  0
   19.8324  -11.4038   63.8410 C   0  0  0  0  0  0  0  0  0  0  0  0
   18.0802   -6.6188   63.9170 C   0  0  0  0  0  0  0  0  0  0  0  0
   18.5971   -6.5108   62.4570 C   0  0  0  0  0  0  0  0  0  0  0  0
   19.0682   -6.0528   64.9050 C   0  0  0  0  0  0  0  0  0  0  0  0
   18.6712   -5.5678   66.1839 C   0  0  0  0  0  0  0  0  0  0  0  0
   19.6401   -5.0459   67.0870 C   0  0  0  0  0  0  0  0  0  0  0  0
   19.3282   -4.5309   68.3730 C   0  0  0  0  0  0  0  0  0  0  0  0
   20.3362   -4.0250   69.2159 C   0  0  0  0  0  0  0  0  0  0  0  0
   18.6632  -10.4769   64.1839 C   0  0  0  0  0  0  0  0  0  0  0  0
   22.8892   -3.4158   69.8119 Cl  0  0  0  0  0  0  0  0  0  0  0  0
   17.0902   -5.2809   67.4170 H   0  0  0  0  0  0  0  0  0  0  0  0
   16.7081   -5.9769   65.9369 H   0  0  0  0  0  0  0  0  0  0  0  0
   22.9872   -4.5348   67.2150 H   0  0  0  0  0  0  0  0  0  0  0  0
   21.3581   -5.6778   62.7280 H   0  0  0  0  0  0  0  0  0  0  0  0
   21.8542   -7.1969   63.4739 H   0  0  0  0  0  0  0  0  0  0  0  0
   20.4411   -9.3219   62.5369 H   0  0  0  0  0  0  0  0  0  0  0  0
   16.8471   -8.3928   63.7539 H   0  0  0  0  0  0  0  0  0  0  0  0
   17.6532   -8.2399   65.3100 H   0  0  0  0  0  0  0  0  0  0  0  0
   19.9361  -11.4750   62.7584 H   0  0  0  0  0  0  0  0  0  0  0  0
   20.7510  -11.0001   64.2689 H   0  0  0  0  0  0  0  0  0  0  0  0
   17.1442   -6.0588   63.9549 H   0  0  0  0  0  0  0  0  0  0  0  0
   18.7511   -5.4619   62.1730 H   0  0  0  0  0  0  0  0  0  0  0  0
   17.8742   -6.9479   61.7580 H   0  0  0  0  0  0  0  0  0  0  0  0
   18.3662   -4.5118   68.7159 H   0  0  0  0  0  0  0  0  0  0  0  0
   20.0842   -3.6578   70.1380 H   0  0  0  0  0  0  0  0  0  0  0  0
   18.5171  -10.4908   65.2699 H   0  0  0  0  0  0  0  0  0  0  0  0
   17.7482  -10.8748   63.7329 H   0  0  0  0  0  0  0  0  0  0  0  0
   22.3130   -5.5167   65.2082 H   0  0  0  0  0  0  0  0  0  0  0  0
   19.6434  -12.3956   64.2519 H   0  0  0  0  0  0  0  0  0  0  0  0
   20.5042   -7.2628   60.9776 C   0  0  0  0  0  0  0  0  0  0  0  0
   21.5031   -7.6988   61.0112 H   0  0  0  0  0  0  0  0  0  0  0  0
   20.5873   -6.2365   60.6183 H   0  0  0  0  0  0  0  0  0  0  0  0
   19.6806   -8.0688   59.9667 C   0  0  0  0  0  0  0  0  0  0  0  0
   20.3372   -8.0425   58.7191 O   0  0  0  0  0  0  0  0  0  0  0  0
   18.6891   -7.6350   59.8440 H   0  0  0  0  0  0  0  0  0  0  0  0
   19.5866   -9.1052   60.2910 H   0  0  0  0  0  0  0  0  0  0  0  0
   19.8207   -8.5532   58.0913 H   0  0  0  0  0  0  0  0  0  0  0  0
  1  6  2  0  0  0  0
  1  5  1  0  0  0  0
  1 39  1  0  0  0  0
  2 23  1  0  0  0  0
  2 22  1  0  0  0  0
  2 16  1  0  0  0  0
  3 21  1  0  0  0  0
  3 19  2  0  0  0  0
  3  4  1  0  0  0  0
  4 24  1  0  0  0  0
  4  5  2  0  0  0  0
  5 17  1  0  0  0  0
  6  7  1  0  0  0  0
  6 15  1  0  0  0  0
  7 26  1  0  0  0  0
  7 25  1  0  0  0  0
  7  8  1  0  0  0  0
  8  9  1  0  0  0  0
  8 14  1  0  0  0  0
  8 41  1  0  0  0  0
  9 27  1  0  0  0  0
  9 10  2  0  0  0  0
 10 11  1  0  0  0  0
 10 20  1  0  0  0  0
 11 29  1  0  0  0  0
 11 28  1  0  0  0  0
 11 13  1  0  0  0  0
 12 31  1  0  0  0  0
 12 30  1  0  0  0  0
 12 20  1  0  0  0  0
 12 40  1  0  0  0  0
 13 32  1  0  0  0  0
 13 14  1  0  0  0  0
 13 15  1  0  0  0  0
 14 34  1  0  0  0  0
 14 33  1  0  0  0  0
 15 16  2  0  0  0  0
 16 17  1  0  0  0  0
 17 18  2  0  0  0  0
 18 35  1  0  0  0  0
 18 19  1  0  0  0  0
 19 36  1  0  0  0  0
 20 38  1  0  0  0  0
 20 37  1  0  0  0  0
 41 42  1  0  0  0  0
 41 43  1  0  0  0  0
 41 44  1  0  0  0  0
 44 45  1  0  0  0  0
 44 46  1  0  0  0  0
 44 47  1  0  0  0  0
 45 48  1  0  0  0  0
M  END
