
  ACD/Labs07171520343D

 65 69  0  0  0  0  0  0  0  0  2 V2000
   10.0507   -4.4309    1.5375 C   0  0  0  0  0  0  0  0  0  0  0  0
   10.1035   -5.4043    0.5574 C   0  0  0  0  0  0  0  0  0  0  0  0
   10.4724   -6.6956    0.8849 C   0  0  0  0  0  0  0  0  0  0  0  0
   10.7882   -7.0136    2.1926 C   0  0  0  0  0  0  0  0  0  0  0  0
   10.7299   -6.0415    3.1737 C   0  0  0  0  0  0  0  0  0  0  0  0
   10.3665   -4.7489    2.8452 C   0  0  0  0  0  0  0  0  0  0  0  0
   11.1900   -8.4215    2.5498 C   0  0  0  0  0  0  0  0  0  0  0  0
   13.1031   -9.8395    2.9852 C   0  0  0  0  0  0  0  0  0  0  0  0
   14.6326   -9.8884    2.9680 C   0  0  0  0  0  0  0  0  0  0  0  0
   15.1270   -9.7385    1.5266 C   0  0  0  0  0  0  0  0  0  0  0  0
   14.5978   -8.4233    0.9481 C   0  0  0  0  0  0  0  0  0  0  0  0
   13.0693   -8.4168    1.0238 C   0  0  0  0  0  0  0  0  0  0  0  0
   16.6569   -9.7256    1.5096 C   0  0  0  0  0  0  0  0  0  0  0  0
   17.1506   -9.7014    0.0616 C   0  0  0  0  0  0  0  0  0  0  0  0
   18.6154   -9.6891    0.0453 N   0  0  0  0  0  0  0  0  0  0  0  0
   19.3672   -8.5738    0.0590 C   0  0  0  0  0  0  0  0  0  0  0  0
   18.9448   -7.4350    0.0814 O   0  0  0  0  0  0  0  0  0  0  0  0
   20.7901   -8.9634    0.0323 C   0  0  0  0  0  0  0  0  0  0  0  0
   21.9861   -8.2590    0.0294 C   0  0  0  0  0  0  0  0  0  0  0  0
   23.1873   -8.9434    0.0081 C   0  0  0  0  0  0  0  0  0  0  0  0
   23.2047  -10.3330   -0.0124 C   0  0  0  0  0  0  0  0  0  0  0  0
   22.0094  -11.0516   -0.0101 C   0  0  0  0  0  0  0  0  0  0  0  0
   20.8038  -10.3742    0.0120 C   0  0  0  0  0  0  0  0  0  0  0  0
   19.3855  -10.7919    0.0213 C   0  0  0  0  0  0  0  0  0  0  0  0
   18.9833  -11.9378    0.0087 O   0  0  0  0  0  0  0  0  0  0  0  0
   24.4219  -11.0112   -0.0347 N   0  0  0  0  0  0  0  0  0  0  0  0
   25.4679  -10.4965   -0.7111 C   0  0  0  0  0  0  0  0  0  0  0  0
   25.3756   -9.4021   -1.2319 O   0  0  0  0  0  0  0  0  0  0  0  0
   26.7271  -11.2628   -0.8196 C   0  0  0  0  0  0  0  0  0  0  0  0
   26.8382  -12.5175   -0.2178 C   0  0  0  0  0  0  0  0  0  0  0  0
   28.0144  -13.2300   -0.3278 C   0  0  0  0  0  0  0  0  0  0  0  0
   29.0863  -12.6987   -1.0229 C   0  0  0  0  0  0  0  0  0  0  0  0
   28.9847  -11.4531   -1.6169 C   0  0  0  0  0  0  0  0  0  0  0  0
   27.8123  -10.7326   -1.5194 C   0  0  0  0  0  0  0  0  0  0  0  0
    9.7632   -3.4218    1.2815 H   0  0  0  0  0  0  0  0  0  0  0  0
    9.8568   -5.1558   -0.4643 H   0  0  0  0  0  0  0  0  0  0  0  0
   10.5136   -7.4561    0.1192 H   0  0  0  0  0  0  0  0  0  0  0  0
   10.9724   -6.2910    4.1962 H   0  0  0  0  0  0  0  0  0  0  0  0
   10.3256   -3.9883    3.6109 H   0  0  0  0  0  0  0  0  0  0  0  0
   10.6971   -9.1220    1.8757 H   0  0  0  0  0  0  0  0  0  0  0  0
   10.8926   -8.6348    3.5765 H   0  0  0  0  0  0  0  0  0  0  0  0
   12.7067  -10.6613    2.3889 H   0  0  0  0  0  0  0  0  0  0  0  0
   12.7483   -9.9316    4.0117 H   0  0  0  0  0  0  0  0  0  0  0  0
   14.9707  -10.8430    3.3712 H   0  0  0  0  0  0  0  0  0  0  0  0
   15.0296   -9.0751    3.5754 H   0  0  0  0  0  0  0  0  0  0  0  0
   14.7631  -10.5735    0.9280 H   0  0  0  0  0  0  0  0  0  0  0  0
   14.9943   -7.5869    1.5237 H   0  0  0  0  0  0  0  0  0  0  0  0
   14.9110   -8.3310   -0.0919 H   0  0  0  0  0  0  0  0  0  0  0  0
   12.6731   -9.2452    0.4367 H   0  0  0  0  0  0  0  0  0  0  0  0
   12.6900   -7.4756    0.6258 H   0  0  0  0  0  0  0  0  0  0  0  0
   17.0333  -10.6196    2.0069 H   0  0  0  0  0  0  0  0  0  0  0  0
   17.0186   -8.8398    2.0317 H   0  0  0  0  0  0  0  0  0  0  0  0
   16.7742   -8.8074   -0.4357 H   0  0  0  0  0  0  0  0  0  0  0  0
   16.7888  -10.5872   -0.4605 H   0  0  0  0  0  0  0  0  0  0  0  0
   21.9784   -7.1791    0.0446 H   0  0  0  0  0  0  0  0  0  0  0  0
   24.1176   -8.3948    0.0062 H   0  0  0  0  0  0  0  0  0  0  0  0
   22.0252  -12.1314   -0.0253 H   0  0  0  0  0  0  0  0  0  0  0  0
   24.5163  -11.8538    0.4366 H   0  0  0  0  0  0  0  0  0  0  0  0
   26.0040  -12.9313    0.3292 H   0  0  0  0  0  0  0  0  0  0  0  0
   28.1003  -14.2027    0.1335 H   0  0  0  0  0  0  0  0  0  0  0  0
   30.0063  -13.2588   -1.1025 H   0  0  0  0  0  0  0  0  0  0  0  0
   29.8250  -11.0442   -2.1583 H   0  0  0  0  0  0  0  0  0  0  0  0
   27.7344   -9.7604   -1.9832 H   0  0  0  0  0  0  0  0  0  0  0  0
   12.6585   -8.5397    2.4386 N   0  3  0  0  0  0  0  0  0  0  0  0
   13.0957   -7.7841    2.9791 H   0  0  0  0  0  0  0  0  0  0  0  0
  1  6  2  0  0  0  0
  1  2  1  0  0  0  0
  1 35  1  0  0  0  0
  2  3  2  0  0  0  0
  2 36  1  0  0  0  0
  3  4  1  0  0  0  0
  3 37  1  0  0  0  0
  4  5  2  0  0  0  0
  4  7  1  0  0  0  0
  5  6  1  0  0  0  0
  5 38  1  0  0  0  0
  6 39  1  0  0  0  0
  7 40  1  0  0  0  0
  7 41  1  0  0  0  0
  7 64  1  0  0  0  0
  8  9  1  0  0  0  0
  8 42  1  0  0  0  0
  8 43  1  0  0  0  0
  8 64  1  0  0  0  0
  9 10  1  0  0  0  0
  9 44  1  0  0  0  0
  9 45  1  0  0  0  0
 10 11  1  0  0  0  0
 10 13  1  0  0  0  0
 10 46  1  0  0  0  0
 11 12  1  0  0  0  0
 11 47  1  0  0  0  0
 11 48  1  0  0  0  0
 12 49  1  0  0  0  0
 12 50  1  0  0  0  0
 12 64  1  0  0  0  0
 13 14  1  0  0  0  0
 13 51  1  0  0  0  0
 13 52  1  0  0  0  0
 14 15  1  0  0  0  0
 14 53  1  0  0  0  0
 14 54  1  0  0  0  0
 15 24  1  0  0  0  0
 15 16  1  0  0  0  0
 16 17  2  0  0  0  0
 16 18  1  0  0  0  0
 18 23  2  0  0  0  0
 18 19  1  0  0  0  0
 19 20  2  0  0  0  0
 19 55  1  0  0  0  0
 20 21  1  0  0  0  0
 20 56  1  0  0  0  0
 21 22  2  0  0  0  0
 21 26  1  0  0  0  0
 22 23  1  0  0  0  0
 22 57  1  0  0  0  0
 23 24  1  0  0  0  0
 24 25  2  0  0  0  0
 26 27  1  0  0  0  0
 26 58  1  0  0  0  0
 27 28  2  0  0  0  0
 27 29  1  0  0  0  0
 29 34  2  0  0  0  0
 29 30  1  0  0  0  0
 30 31  2  0  0  0  0
 30 59  1  0  0  0  0
 31 32  1  0  0  0  0
 31 60  1  0  0  0  0
 32 33  2  0  0  0  0
 32 61  1  0  0  0  0
 33 34  1  0  0  0  0
 33 62  1  0  0  0  0
 34 63  1  0  0  0  0
 64 65  1  0  0  0  0
M  CHG  1  64   1
M  END
