
  ACD/Labs07171520343D

 37 39  0  0  0  0  0  0  0  0  1 V2000
   18.0367   -4.8249   60.7930 C   0  0  0  0  0  0  0  0  0  0  0  0
   17.6017   -4.2779   59.7870 O   0  0  0  0  0  0  0  0  0  0  0  0
   19.1887   -5.4869   60.7380 N   0  0  0  0  0  0  0  0  0  0  0  0
   17.3647   -4.7469   61.9760 C   0  0  0  0  0  0  0  0  0  0  0  0
   17.8717   -5.3709   63.0580 C   0  0  0  0  0  0  0  0  0  0  0  0
   19.0477   -6.1109   63.0040 C   0  0  0  0  0  0  0  0  0  0  0  0
   19.7277   -6.0939   61.8190 C   0  0  0  0  0  0  0  0  0  0  0  0
   21.0317   -6.7299   61.6600 C   0  0  0  0  0  0  0  0  0  0  0  0
   21.6947   -7.1629   63.0030 C   0  0  0  0  0  0  0  0  0  0  0  0
   22.2867   -6.0109   63.7000 C   0  0  0  0  0  0  0  0  0  0  0  0
   21.5997  -10.0939   63.7940 C   0  0  0  0  0  0  0  0  0  0  0  0
   20.6207   -9.0959   64.1700 C   0  0  0  0  0  0  0  0  0  0  0  0
   20.6417   -7.7859   63.8290 C   0  0  0  0  0  0  0  0  0  0  0  0
   19.6037   -6.7909   64.2140 C   0  0  0  0  0  0  0  0  0  0  0  0
   18.4977   -7.3859   65.0030 N   0  0  0  0  0  0  0  0  0  0  0  0
   20.3217   -5.7339   65.1310 C   0  0  0  0  0  0  0  0  0  0  0  0
   21.6467   -5.3049   64.6610 C   0  0  0  0  0  0  0  0  0  0  0  0
   22.3067   -4.1699   65.2970 C   0  0  0  0  0  0  0  0  0  0  0  0
   19.6627   -5.5219   59.8950 H   0  0  0  0  0  0  0  0  0  0  0  0
   16.5207   -4.2209   62.0500 H   0  0  0  0  0  0  0  0  0  0  0  0
   17.3827   -5.2709   63.9190 H   0  0  0  0  0  0  0  0  0  0  0  0
   20.8957   -7.6179   61.0380 H   0  0  0  0  0  0  0  0  0  0  0  0
   21.7087   -6.0599   61.1240 H   0  0  0  0  0  0  0  0  0  0  0  0
   22.5107   -7.8459   62.7560 H   0  0  0  0  0  0  0  0  0  0  0  0
   23.1857   -5.7079   63.3940 H   0  0  0  0  0  0  0  0  0  0  0  0
   21.6457  -10.1839   62.7060 H   0  0  0  0  0  0  0  0  0  0  0  0
   21.3247  -11.0689   64.2050 H   0  0  0  0  0  0  0  0  0  0  0  0
   22.5837   -9.8249   64.1870 H   0  0  0  0  0  0  0  0  0  0  0  0
   19.8697   -9.4309   64.7200 H   0  0  0  0  0  0  0  0  0  0  0  0
   17.8557   -6.6559   65.3120 H   0  0  0  0  0  0  0  0  0  0  0  0
   18.8807   -7.8549   65.8250 H   0  0  0  0  0  0  0  0  0  0  0  0
   17.9917   -8.0619   64.4290 H   0  0  0  0  0  0  0  0  0  0  0  0
   19.6747   -4.8589   65.2520 H   0  0  0  0  0  0  0  0  0  0  0  0
   20.4677   -6.1619   66.1280 H   0  0  0  0  0  0  0  0  0  0  0  0
   23.2377   -4.4919   65.7720 H   0  0  0  0  0  0  0  0  0  0  0  0
   21.6827   -3.7059   66.0670 H   0  0  0  0  0  0  0  0  0  0  0  0
   22.5367   -3.4059   64.5490 H   0  0  0  0  0  0  0  0  0  0  0  0
  1  2  2  0  0  0  0
  1  3  1  0  0  0  0
  1  4  1  0  0  0  0
  3 19  1  0  0  0  0
  3  7  1  0  0  0  0
  4 20  1  0  0  0  0
  4  5  2  0  0  0  0
  5 21  1  0  0  0  0
  5  6  1  0  0  0  0
  6 14  1  0  0  0  0
  6  7  2  0  0  0  0
  7  8  1  0  0  0  0
  8 23  1  0  0  0  0
  8 22  1  0  0  0  0
  8  9  1  0  0  0  0
  9 24  1  0  0  0  0
  9 10  1  0  0  0  0
  9 13  1  0  0  0  0
 10 25  1  0  0  0  0
 10 17  2  0  0  0  0
 11 28  1  0  0  0  0
 11 27  1  0  0  0  0
 11 26  1  0  0  0  0
 11 12  1  0  0  0  0
 12 29  1  0  0  0  0
 12 13  2  0  0  0  0
 13 14  1  0  0  0  0
 14 15  1  0  0  0  0
 14 16  1  0  0  0  0
 15 32  1  0  0  0  0
 15 31  1  0  0  0  0
 15 30  1  0  0  0  0
 16 34  1  0  0  0  0
 16 33  1  0  0  0  0
 16 17  1  0  0  0  0
 17 18  1  0  0  0  0
 18 37  1  0  0  0  0
 18 36  1  0  0  0  0
 18 35  1  0  0  0  0
M  END
