
  ACD/Labs07171520343D

 41 44  0  0  0  0  0  0  0  0  1 V2000
   21.3472   -5.5158   65.4670 N   0  0  0  0  0  0  0  0  0  0  0  0
   17.3712   -5.5928   66.5450 N   0  0  0  0  0  0  0  0  0  0  0  0
   21.6802   -4.0068   68.7950 C   0  0  0  0  0  0  0  0  0  0  0  0
   22.0102   -4.5148   67.5230 C   0  0  0  0  0  0  0  0  0  0  0  0
   21.0022   -5.0218   66.6790 C   0  0  0  0  0  0  0  0  0  0  0  0
   20.4562   -6.0298   64.5850 C   0  0  0  0  0  0  0  0  0  0  0  0
   20.9932   -6.5278   63.2890 C   0  0  0  0  0  0  0  0  0  0  0  0
   19.9392   -7.2738   62.4150 C   0  0  0  0  0  0  0  0  0  0  0  0
   19.7712   -8.6558   62.8720 C   0  0  0  0  0  0  0  0  0  0  0  0
   18.8202   -9.0608   63.7510 C   0  0  0  0  0  0  0  0  0  0  0  0
   17.7972   -8.1088   64.2280 C   0  0  0  0  0  0  0  0  0  0  0  0
   19.7972  -11.4808   63.9120 C   0  0  0  0  0  0  0  0  0  0  0  0
   18.0802   -6.6028   63.9170 C   0  0  0  0  0  0  0  0  0  0  0  0
   18.5972   -6.4948   62.4570 C   0  0  0  0  0  0  0  0  0  0  0  0
   19.0682   -6.0368   64.9050 C   0  0  0  0  0  0  0  0  0  0  0  0
   18.6712   -5.5518   66.1840 C   0  0  0  0  0  0  0  0  0  0  0  0
   19.6402   -5.0298   67.0870 C   0  0  0  0  0  0  0  0  0  0  0  0
   19.3282   -4.5148   68.3730 C   0  0  0  0  0  0  0  0  0  0  0  0
   20.3362   -4.0088   69.2160 C   0  0  0  0  0  0  0  0  0  0  0  0
   18.6632  -10.4608   64.1840 C   0  0  0  0  0  0  0  0  0  0  0  0
   22.8892   -3.3998   69.8120 Cl  0  0  0  0  0  0  0  0  0  0  0  0
   17.0902   -5.2648   67.4170 H   0  0  0  0  0  0  0  0  0  0  0  0
   16.7082   -5.9608   65.9370 H   0  0  0  0  0  0  0  0  0  0  0  0
   22.9872   -4.5188   67.2150 H   0  0  0  0  0  0  0  0  0  0  0  0
   21.3582   -5.6618   62.7280 H   0  0  0  0  0  0  0  0  0  0  0  0
   21.8542   -7.1808   63.4740 H   0  0  0  0  0  0  0  0  0  0  0  0
   20.2912   -7.2858   61.3760 H   0  0  0  0  0  0  0  0  0  0  0  0
   20.4412   -9.3058   62.5370 H   0  0  0  0  0  0  0  0  0  0  0  0
   16.8472   -8.3768   63.7540 H   0  0  0  0  0  0  0  0  0  0  0  0
   17.6532   -8.2238   65.3100 H   0  0  0  0  0  0  0  0  0  0  0  0
   19.9622  -11.6098   62.8400 H   0  0  0  0  0  0  0  0  0  0  0  0
   19.5222  -12.4508   64.3340 H   0  0  0  0  0  0  0  0  0  0  0  0
   20.7232  -11.1488   64.3850 H   0  0  0  0  0  0  0  0  0  0  0  0
   17.1442   -6.0428   63.9550 H   0  0  0  0  0  0  0  0  0  0  0  0
   18.7512   -5.4458   62.1730 H   0  0  0  0  0  0  0  0  0  0  0  0
   17.8742   -6.9318   61.7580 H   0  0  0  0  0  0  0  0  0  0  0  0
   18.3662   -4.4958   68.7160 H   0  0  0  0  0  0  0  0  0  0  0  0
   20.0842   -3.6418   70.1380 H   0  0  0  0  0  0  0  0  0  0  0  0
   18.5172  -10.4748   65.2700 H   0  0  0  0  0  0  0  0  0  0  0  0
   17.7482  -10.8588   63.7330 H   0  0  0  0  0  0  0  0  0  0  0  0
   22.3130   -5.5006   65.2082 H   0  0  0  0  0  0  0  0  0  0  0  0
  1  6  2  0  0  0  0
  1  5  1  0  0  0  0
  1 41  1  0  0  0  0
  2 23  1  0  0  0  0
  2 22  1  0  0  0  0
  2 16  1  0  0  0  0
  3 21  1  0  0  0  0
  3 19  2  0  0  0  0
  3  4  1  0  0  0  0
  4 24  1  0  0  0  0
  4  5  2  0  0  0  0
  5 17  1  0  0  0  0
  6  7  1  0  0  0  0
  6 15  1  0  0  0  0
  7 26  1  0  0  0  0
  7 25  1  0  0  0  0
  7  8  1  0  0  0  0
  8 27  1  0  0  0  0
  8  9  1  0  0  0  0
  8 14  1  0  0  0  0
  9 28  1  0  0  0  0
  9 10  2  0  0  0  0
 10 11  1  0  0  0  0
 10 20  1  0  0  0  0
 11 30  1  0  0  0  0
 11 29  1  0  0  0  0
 11 13  1  0  0  0  0
 12 33  1  0  0  0  0
 12 32  1  0  0  0  0
 12 31  1  0  0  0  0
 12 20  1  0  0  0  0
 13 34  1  0  0  0  0
 13 14  1  0  0  0  0
 13 15  1  0  0  0  0
 14 36  1  0  0  0  0
 14 35  1  0  0  0  0
 15 16  2  0  0  0  0
 16 17  1  0  0  0  0
 17 18  2  0  0  0  0
 18 37  1  0  0  0  0
 18 19  1  0  0  0  0
 19 38  1  0  0  0  0
 20 40  1  0  0  0  0
 20 39  1  0  0  0  0
M  END
