ZINC00026943
  -OEChem-08230709403D

 35 38  0     0  0  0  0  0  0999 V2000
   -6.5797    9.7102    4.7871 C   0  0  0  0  0  0  0  0  0  0  0  0
   -5.2576    9.3273    5.1711 O   0  0  0  0  0  0  0  0  0  0  0  0
   -4.6777    8.3204    4.4665 C   0  0  0  0  0  0  0  0  0  0  0  0
   -3.3945    7.8996    4.7880 C   0  0  0  0  0  0  0  0  0  0  0  0
   -2.8034    6.8778    4.0746 C   0  0  0  0  0  0  0  0  0  0  0  0
   -3.4956    6.2678    3.0301 C   0  0  0  0  0  0  0  0  0  0  0  0
   -4.7817    6.6961    2.7062 C   0  0  0  0  0  0  0  0  0  0  0  0
   -5.3695    7.7150    3.4263 C   0  0  0  0  0  0  0  0  0  0  0  0
   -2.8622    5.1686    2.2602 C   0  0  0  0  0  0  0  0  0  0  0  0
   -1.5571    4.7325    2.5788 C   0  0  0  0  0  0  0  0  0  0  0  0
   -1.0029    3.7606    1.8953 N   0  0  0  0  0  0  0  0  0  0  0  0
   -1.6573    3.1615    0.8940 C   0  0  0  0  0  0  0  0  0  0  0  0
   -1.3027    2.1283    0.0198 C   0  0  0  0  0  0  0  0  0  0  0  0
   -2.3856    1.9195   -0.8379 C   0  0  0  0  0  0  0  0  0  0  0  0
   -3.3425    2.7624   -0.5273 N   0  0  0  0  0  0  0  0  0  0  0  0
   -2.9245    3.5569    0.5461 N   0  0  0  0  0  0  0  0  0  0  0  0
   -3.5344    4.5657    1.2349 C   0  0  0  0  0  0  0  0  0  0  0  0
   -0.0168    1.3870    0.0097 C   0  0  0  0  0  0  0  0  0  0  0  0
    0.0021   -0.0041    0.0020 C   0  0  0  0  0  0  0  0  0  0  0  0
    1.1939   -0.6440   -0.0128 C   0  0  0  0  0  0  0  0  0  0  0  0
    2.3519    0.7141   -0.0166 S   0  0  0  0  0  0  0  0  0  0  0  0
    1.1746    2.0557    0.0019 C   0  0  0  0  0  0  0  0  0  0  0  0
   -6.9236   10.5219    5.4282 H   0  0  0  0  0  0  0  0  0  0  0  0
   -6.5743   10.0442    3.7495 H   0  0  0  0  0  0  0  0  0  0  0  0
   -7.2497    8.8567    4.8906 H   0  0  0  0  0  0  0  0  0  0  0  0
   -2.8587    8.3724    5.5977 H   0  0  0  0  0  0  0  0  0  0  0  0
   -1.8049    6.5511    4.3249 H   0  0  0  0  0  0  0  0  0  0  0  0
   -5.3188    6.2282    1.8945 H   0  0  0  0  0  0  0  0  0  0  0  0
   -6.3677    8.0445    3.1785 H   0  0  0  0  0  0  0  0  0  0  0  0
   -1.0145    5.2008    3.3867 H   0  0  0  0  0  0  0  0  0  0  0  0
   -2.4284    1.1842   -1.6278 H   0  0  0  0  0  0  0  0  0  0  0  0
   -4.5332    4.8825    0.9730 H   0  0  0  0  0  0  0  0  0  0  0  0
   -0.9210   -0.5647    0.0075 H   0  0  0  0  0  0  0  0  0  0  0  0
    1.3936   -1.7053   -0.0204 H   0  0  0  0  0  0  0  0  0  0  0  0
    1.3568    3.1202    0.0062 H   0  0  0  0  0  0  0  0  0  0  0  0
  1  2  1  0  0  0  0
  1 23  1  0  0  0  0
  1 24  1  0  0  0  0
  1 25  1  0  0  0  0
  2  3  1  0  0  0  0
  3  8  2  0  0  0  0
  3  4  1  0  0  0  0
  4  5  2  0  0  0  0
  4 26  1  0  0  0  0
  5  6  1  0  0  0  0
  5 27  1  0  0  0  0
  6  7  2  0  0  0  0
  6  9  1  0  0  0  0
  7  8  1  0  0  0  0
  7 28  1  0  0  0  0
  8 29  1  0  0  0  0
  9 17  2  0  0  0  0
  9 10  1  0  0  0  0
 10 11  2  0  0  0  0
 10 30  1  0  0  0  0
 11 12  1  0  0  0  0
 12 16  1  0  0  0  0
 12 13  2  0  0  0  0
 13 14  1  0  0  0  0
 13 18  1  0  0  0  0
 14 15  2  0  0  0  0
 14 31  1  0  0  0  0
 15 16  1  0  0  0  0
 16 17  1  0  0  0  0
 17 32  1  0  0  0  0
 18 22  2  0  0  0  0
 18 19  1  0  0  0  0
 19 20  2  0  0  0  0
 19 33  1  0  0  0  0
 20 21  1  0  0  0  0
 20 34  1  0  0  0  0
 21 22  1  0  0  0  0
 22 35  1  0  0  0  0
M  END
$$$$
