ZINC00008981
  -OEChem-08230709403D

 37 42  0     0  0  0  0  0  0999 V2000
    3.7583    8.4401    0.0090 C   0  0  0  0  0  0  0  0  0  0  0  0
    2.4686    8.9409    0.0226 C   0  0  0  0  0  0  0  0  0  0  0  0
    1.3898    8.0820    0.0286 C   0  0  0  0  0  0  0  0  0  0  0  0
    1.5988    6.7005    0.0205 C   0  0  0  0  0  0  0  0  0  0  0  0
    2.9007    6.2062    0.0063 C   0  0  0  0  0  0  0  0  0  0  0  0
    3.9728    7.0730    0.0013 C   0  0  0  0  0  0  0  0  0  0  0  0
    2.8137    4.7000   -0.0002 C   0  0  0  0  0  0  0  0  0  0  0  0
    1.3407    4.3665    0.0115 C   0  0  0  0  0  0  0  0  0  0  0  0
    0.6399    5.5695    0.0237 C   0  0  0  0  0  0  0  0  0  0  0  0
   -0.7658    5.5617    0.0368 C   0  0  0  0  0  0  0  0  0  0  0  0
   -1.4577    4.3381    0.0375 C   0  0  0  0  0  0  0  0  0  0  0  0
   -2.8919    4.6716    0.0521 C   0  0  0  0  0  0  0  0  0  0  0  0
   -4.0557    3.9044    0.0591 C   0  0  0  0  0  0  0  0  0  0  0  0
   -5.2851    4.5266    0.0727 C   0  0  0  0  0  0  0  0  0  0  0  0
   -5.3678    5.9108    0.0797 C   0  0  0  0  0  0  0  0  0  0  0  0
   -4.2253    6.6818    0.0733 C   0  0  0  0  0  0  0  0  0  0  0  0
   -2.9742    6.0729    0.0592 C   0  0  0  0  0  0  0  0  0  0  0  0
   -1.6894    6.5848    0.0498 N   0  0  0  0  0  0  0  0  0  0  0  0
   -1.4696    7.5296    0.0526 H   0  0  0  0  0  0  0  0  0  0  0  0
   -0.7468    3.1356    0.0252 C   0  0  0  0  0  0  0  0  0  0  0  0
    0.6626    3.1570    0.0121 C   0  0  0  0  0  0  0  0  0  0  0  0
    1.0872    1.7423    0.0010 C   0  0  0  0  0  0  0  0  0  0  0  0
    2.2356    1.3466   -0.0117 O   0  0  0  0  0  0  0  0  0  0  0  0
   -0.0111    0.9658    0.0074 N   0  0  0  0  0  0  0  0  0  0  0  0
   -1.1300    1.7121    0.0162 C   0  0  0  0  0  0  0  0  0  0  0  0
   -2.2672    1.2842    0.0191 O   0  0  0  0  0  0  0  0  0  0  0  0
    4.5993    9.1175    0.0047 H   0  0  0  0  0  0  0  0  0  0  0  0
    2.3061   10.0086    0.0289 H   0  0  0  0  0  0  0  0  0  0  0  0
    0.3845    8.4766    0.0400 H   0  0  0  0  0  0  0  0  0  0  0  0
    4.9806    6.6849   -0.0089 H   0  0  0  0  0  0  0  0  0  0  0  0
    3.2978    4.2924    0.8873 H   0  0  0  0  0  0  0  0  0  0  0  0
    3.2817    4.3010   -0.9002 H   0  0  0  0  0  0  0  0  0  0  0  0
   -3.9941    2.8262    0.0536 H   0  0  0  0  0  0  0  0  0  0  0  0
   -6.1879    3.9338    0.0775 H   0  0  0  0  0  0  0  0  0  0  0  0
   -6.3361    6.3891    0.0900 H   0  0  0  0  0  0  0  0  0  0  0  0
   -4.3011    7.7591    0.0789 H   0  0  0  0  0  0  0  0  0  0  0  0
    0.0021   -0.0041    0.0020 H   0  0  0  0  0  0  0  0  0  0  0  0
  1  6  2  0  0  0  0
  1  2  1  0  0  0  0
  1 27  1  0  0  0  0
  2  3  2  0  0  0  0
  2 28  1  0  0  0  0
  3  4  1  0  0  0  0
  3 29  1  0  0  0  0
  4  9  1  0  0  0  0
  4  5  2  0  0  0  0
  5  6  1  0  0  0  0
  5  7  1  0  0  0  0
  6 30  1  0  0  0  0
  7  8  1  0  0  0  0
  7 31  1  0  0  0  0
  7 32  1  0  0  0  0
  8 21  2  0  0  0  0
  8  9  1  0  0  0  0
  9 10  2  0  0  0  0
 10 18  1  0  0  0  0
 10 11  1  0  0  0  0
 11 12  1  0  0  0  0
 11 20  2  0  0  0  0
 12 17  2  0  0  0  0
 12 13  1  0  0  0  0
 13 14  2  0  0  0  0
 13 33  1  0  0  0  0
 14 15  1  0  0  0  0
 14 34  1  0  0  0  0
 15 16  2  0  0  0  0
 15 35  1  0  0  0  0
 16 17  1  0  0  0  0
 16 36  1  0  0  0  0
 17 18  1  0  0  0  0
 18 19  1  0  0  0  0
 20 25  1  0  0  0  0
 20 21  1  0  0  0  0
 21 22  1  0  0  0  0
 22 23  2  0  0  0  0
 22 24  1  0  0  0  0
 24 25  1  0  0  0  0
 24 37  1  0  0  0  0
 25 26  2  0  0  0  0
M  END
$$$$
