ZINC03834191
  -OEChem-08230709403D

 57 59  0     0  0  0  0  0  0999 V2000
    0.2005    2.5208   -6.4778 C   0  0  0  0  0  0  0  0  0  0  0  0
   -0.0440    1.2899   -7.0590 C   0  0  0  0  0  0  0  0  0  0  0  0
   -0.9689    0.4298   -6.4954 C   0  0  0  0  0  0  0  0  0  0  0  0
   -1.6513    0.8010   -5.3493 C   0  0  0  0  0  0  0  0  0  0  0  0
   -1.4074    2.0330   -4.7673 C   0  0  0  0  0  0  0  0  0  0  0  0
   -0.4851    2.8954   -5.3347 C   0  0  0  0  0  0  0  0  0  0  0  0
   -0.2502    4.1001   -4.7702 F   0  0  0  0  0  0  0  0  0  0  0  0
   -2.1502    2.4379   -3.5202 C   0  0  0  0  0  0  0  0  0  0  0  0
   -1.4147    2.0165   -2.3697 O   0  0  0  0  0  0  0  0  0  0  0  0
   -1.9502    2.3057   -1.1557 C   0  0  0  0  0  0  0  0  0  0  0  0
   -1.2943    1.9287    0.0187 C   0  0  0  0  0  0  0  0  0  0  0  0
   -1.9426    2.2880    1.2044 C   0  0  0  0  0  0  0  0  0  0  0  0
   -3.3627    3.0849    0.6140 S   0  0  0  0  0  0  0  0  0  0  0  0
   -3.0907    2.9376   -1.0651 N   0  0  0  0  0  0  0  0  0  0  0  0
   -1.5501    2.0644    2.5138 N   0  0  0  0  0  0  0  0  0  0  0  0
   -2.3225    2.4937    3.5315 C   0  0  0  0  0  0  0  0  0  0  0  0
   -3.3637    3.0773    3.3001 O   0  0  0  0  0  0  0  0  0  0  0  0
   -1.9407    2.2761    4.8056 N   0  0  0  0  0  0  0  0  0  0  0  0
   -2.7802    2.7427    5.9117 C   0  0  0  0  0  0  0  0  0  0  0  0
   -2.1233    2.3710    7.2426 C   0  0  0  0  0  0  0  0  0  0  0  0
   -3.0001    2.8583    8.3978 C   0  0  0  0  0  0  0  0  0  0  0  0
   -2.3432    2.4866    9.7287 C   0  0  0  0  0  0  0  0  0  0  0  0
   -4.5824    2.4747   10.6847 C   0  0  0  0  0  0  0  0  0  0  0  0
   -5.1552    2.5875   12.1199 C   0  0  0  0  0  0  0  0  0  0  0  0
   -3.9561    2.1749   13.0041 C   0  0  0  0  0  0  0  0  0  0  0  0
   -2.7112    2.4105   12.1290 C   0  0  0  0  0  0  0  0  0  0  0  0
   -0.0144    1.2128    0.0087 C   0  0  0  0  0  0  0  0  0  0  0  0
    0.0021   -0.0041    0.0020 O   0  0  0  0  0  0  0  0  0  0  0  0
    1.1435    1.9025    0.0014 N   0  0  0  0  0  0  0  0  0  0  0  0
   -2.5547   -0.0393   -4.7990 F   0  0  0  0  0  0  0  0  0  0  0  0
    0.8871    0.7824   -8.6246 Br  0  0  0  0  0  0  0  0  0  0  0  0
    0.9228    3.1920   -6.9184 H   0  0  0  0  0  0  0  0  0  0  0  0
   -1.1591   -0.5314   -6.9496 H   0  0  0  0  0  0  0  0  0  0  0  0
   -3.1339    1.9683   -3.5146 H   0  0  0  0  0  0  0  0  0  0  0  0
   -2.2649    3.5217   -3.5013 H   0  0  0  0  0  0  0  0  0  0  0  0
   -0.7195    1.5988    2.6984 H   0  0  0  0  0  0  0  0  0  0  0  0
   -1.1100    1.8105    4.9901 H   0  0  0  0  0  0  0  0  0  0  0  0
   -2.8918    3.8253    5.8515 H   0  0  0  0  0  0  0  0  0  0  0  0
   -3.7613    2.2722    5.8468 H   0  0  0  0  0  0  0  0  0  0  0  0
   -2.0117    1.2884    7.3028 H   0  0  0  0  0  0  0  0  0  0  0  0
   -1.1422    2.8415    7.3075 H   0  0  0  0  0  0  0  0  0  0  0  0
   -3.1117    3.9409    8.3376 H   0  0  0  0  0  0  0  0  0  0  0  0
   -3.9812    2.3878    8.3329 H   0  0  0  0  0  0  0  0  0  0  0  0
   -2.2316    1.4040    9.7889 H   0  0  0  0  0  0  0  0  0  0  0  0
   -1.3621    2.9571    9.7936 H   0  0  0  0  0  0  0  0  0  0  0  0
   -5.1360    3.1151    9.9981 H   0  0  0  0  0  0  0  0  0  0  0  0
   -4.5985    1.4393   10.3443 H   0  0  0  0  0  0  0  0  0  0  0  0
   -5.9901    1.9003   12.2570 H   0  0  0  0  0  0  0  0  0  0  0  0
   -5.4584    3.6122   12.3347 H   0  0  0  0  0  0  0  0  0  0  0  0
   -4.0324    1.1227   13.2781 H   0  0  0  0  0  0  0  0  0  0  0  0
   -3.9135    2.7972   13.8980 H   0  0  0  0  0  0  0  0  0  0  0  0
   -2.1885    1.4681   11.9654 H   0  0  0  0  0  0  0  0  0  0  0  0
   -2.0474    3.1272   12.6127 H   0  0  0  0  0  0  0  0  0  0  0  0
    1.9900    1.4290   -0.0093 H   0  0  0  0  0  0  0  0  0  0  0  0
    1.1303    2.8724    0.0067 H   0  0  0  0  0  0  0  0  0  0  0  0
   -3.2013    2.9507   10.8601 N   0  3  0  0  0  0  0  0  0  0  0  0
   -3.1895    3.9769   10.8926 H   0  0  0  0  0  0  0  0  0  0  0  0
  1  6  2  0  0  0  0
  1  2  1  0  0  0  0
  1 32  1  0  0  0  0
  2  3  2  0  0  0  0
  2 31  1  0  0  0  0
  3  4  1  0  0  0  0
  3 33  1  0  0  0  0
  4  5  2  0  0  0  0
  4 30  1  0  0  0  0
  5  6  1  0  0  0  0
  5  8  1  0  0  0  0
  6  7  1  0  0  0  0
  8  9  1  0  0  0  0
  8 34  1  0  0  0  0
  8 35  1  0  0  0  0
  9 10  1  0  0  0  0
 10 14  2  0  0  0  0
 10 11  1  0  0  0  0
 11 12  2  0  0  0  0
 11 27  1  0  0  0  0
 12 13  1  0  0  0  0
 12 15  1  0  0  0  0
 13 14  1  0  0  0  0
 15 16  1  0  0  0  0
 15 36  1  0  0  0  0
 16 17  2  0  0  0  0
 16 18  1  0  0  0  0
 18 19  1  0  0  0  0
 18 37  1  0  0  0  0
 19 20  1  0  0  0  0
 19 38  1  0  0  0  0
 19 39  1  0  0  0  0
 20 21  1  0  0  0  0
 20 40  1  0  0  0  0
 20 41  1  0  0  0  0
 21 22  1  0  0  0  0
 21 42  1  0  0  0  0
 21 43  1  0  0  0  0
 22 44  1  0  0  0  0
 22 45  1  0  0  0  0
 22 56  1  0  0  0  0
 23 24  1  0  0  0  0
 23 46  1  0  0  0  0
 23 47  1  0  0  0  0
 23 56  1  0  0  0  0
 24 25  1  0  0  0  0
 24 48  1  0  0  0  0
 24 49  1  0  0  0  0
 25 26  1  0  0  0  0
 25 50  1  0  0  0  0
 25 51  1  0  0  0  0
 26 52  1  0  0  0  0
 26 53  1  0  0  0  0
 26 56  1  0  0  0  0
 27 28  2  0  0  0  0
 27 29  1  0  0  0  0
 29 54  1  0  0  0  0
 29 55  1  0  0  0  0
 56 57  1  0  0  0  0
M  CHG  1  56   1
M  END
$$$$
