
  ACD/Labs07171520363D

 60 62  0  0  0  0  0  0  0  0  1 V2000
   17.7005  -12.8068    1.8466 C   0  0  0  0  0  0  0  0  0  0  0  0
   18.8373  -13.5318    1.5070 C   0  0  0  0  0  0  0  0  0  0  0  0
   19.8251  -13.0088    3.6540 C   0  0  0  0  0  0  0  0  0  0  0  0
   18.6634  -12.3058    4.0104 C   0  0  0  0  0  0  0  0  0  0  0  0
   21.1439  -14.3529    2.0532 C   0  0  0  0  0  0  0  0  0  0  0  0
   22.1833  -14.3460    3.0333 N   0  0  0  0  0  0  0  0  0  0  0  0
   22.0359  -13.6233    4.2439 C   0  0  0  0  0  0  0  0  0  0  0  0
   20.9023  -13.0418    4.5700 N   0  0  0  0  0  0  0  0  0  0  0  0
   17.5991  -12.2101    3.1223 C   0  0  0  0  0  0  0  0  0  0  0  0
   21.3748  -14.9897    1.0339 O   0  0  0  0  0  0  0  0  0  0  0  0
   19.9070  -13.6406    2.4025 C   0  0  0  0  0  0  0  0  0  0  0  0
   23.2032  -13.5864    5.1725 C   0  0  0  0  0  0  0  0  0  0  0  0
   18.9148  -13.9949    0.5148 H   0  0  0  0  0  0  0  0  0  0  0  0
   23.1069  -14.6220    2.7759 H   0  0  0  0  0  0  0  0  0  0  0  0
   24.0704  -13.1200    4.6852 H   0  0  0  0  0  0  0  0  0  0  0  0
   22.9896  -13.0084    6.0810 H   0  0  0  0  0  0  0  0  0  0  0  0
   23.4920  -14.6016    5.4734 H   0  0  0  0  0  0  0  0  0  0  0  0
   16.6589  -12.5662    0.7888 C   0  0  0  0  0  0  0  0  0  0  0  0
   20.5088   -9.3400   -0.0325 C   0  0  0  0  0  0  0  0  0  0  0  0
   21.9382   -8.8375   -0.0616 C   0  0  0  0  0  0  0  0  0  0  0  0
   22.5817   -8.9156   -1.1119 O   0  0  0  0  0  0  0  0  0  0  0  0
   22.5066   -8.4514    1.1465 N   0  0  0  0  0  0  0  0  0  0  0  0
   23.8498   -7.8155    1.2888 C   0  0  0  0  0  0  0  0  0  0  0  0
   24.2218   -8.0526    2.8063 C   0  0  0  0  0  0  0  0  0  0  0  0
   25.1304   -8.8758    3.0650 O   0  0  0  0  0  0  0  0  0  0  0  0
   23.5438   -7.4951    3.7027 O   0  0  0  0  0  0  0  0  0  0  0  0
   23.8621   -6.3433    0.8504 C   0  0  0  0  0  0  0  0  0  0  0  0
   25.2802   -5.8020    0.8041 C   0  0  0  0  0  0  0  0  0  0  0  0
   25.3461   -4.3582    0.2393 C   0  0  0  0  0  0  0  0  0  0  0  0
   25.6152   -3.4017    1.0117 O   0  0  0  0  0  0  0  0  0  0  0  0
   25.1698   -4.1538   -0.9917 O   0  0  0  0  0  0  0  0  0  0  0  0
   21.8814   -8.2530    1.9012 H   0  0  0  0  0  0  0  0  0  0  0  0
   23.4121   -6.2432   -0.1617 H   0  0  0  0  0  0  0  0  0  0  0  0
   23.2490   -5.7086    1.5243 H   0  0  0  0  0  0  0  0  0  0  0  0
   25.7163   -5.8409    1.8207 H   0  0  0  0  0  0  0  0  0  0  0  0
   25.9147   -6.4531    0.1713 H   0  0  0  0  0  0  0  0  0  0  0  0
   20.2032  -10.5140   -0.7227 C   0  0  0  0  0  0  0  0  0  0  0  0
   18.9354  -11.0957   -0.6857 C   0  0  0  0  0  0  0  0  0  0  0  0
   17.9374  -10.5006    0.0968 C   0  0  0  0  0  0  0  0  0  0  0  0
   18.1874   -9.2761    0.7208 C   0  0  0  0  0  0  0  0  0  0  0  0
   19.4575   -8.6927    0.6381 C   0  0  0  0  0  0  0  0  0  0  0  0
   16.6654  -11.1200    0.4505 N   0  0  0  0  0  0  0  0  0  0  0  0
   21.0056  -10.9918   -1.3020 H   0  0  0  0  0  0  0  0  0  0  0  0
   18.7614  -12.0375   -1.2291 H   0  0  0  0  0  0  0  0  0  0  0  0
   17.3986   -8.7980    1.3105 H   0  0  0  0  0  0  0  0  0  0  0  0
   19.6395   -7.5099    1.2462 F   0  0  0  0  0  0  0  0  0  0  0  0
   24.5674   -8.3766    0.6401 H   0  0  0  0  0  0  0  0  0  0  0  0
   15.4232  -10.5136   -0.0621 C   0  0  0  0  0  0  0  0  0  0  0  0
   14.8235  -11.1430   -1.2115 C   0  0  0  0  0  0  0  0  0  0  0  0
   14.2906  -11.6455   -2.1569 C   0  0  0  0  0  0  0  0  0  0  0  0
   14.6809  -10.5309    0.7688 H   0  0  0  0  0  0  0  0  0  0  0  0
   15.6261   -9.4465   -0.2890 H   0  0  0  0  0  0  0  0  0  0  0  0
   13.8332  -12.1072   -2.9923 H   0  0  0  0  0  0  0  0  0  0  0  0
   16.3941  -11.4385    3.5365 C   0  0  0  0  0  0  0  0  0  0  0  0
   18.6164  -11.8095    4.9868 H   0  0  0  0  0  0  0  0  0  0  0  0
   15.6450  -12.8338    1.1593 H   0  0  0  0  0  0  0  0  0  0  0  0
   16.8423  -13.2247   -0.0869 H   0  0  0  0  0  0  0  0  0  0  0  0
   16.2588  -10.5445    2.9072 H   0  0  0  0  0  0  0  0  0  0  0  0
   15.4836  -12.0475    3.4499 H   0  0  0  0  0  0  0  0  0  0  0  0
   16.4549  -11.0867    4.5761 H   0  0  0  0  0  0  0  0  0  0  0  0
  1  2  2  0  0  0  0
  1  9  1  0  0  0  0
  1 18  1  0  0  0  0
  2 11  1  0  0  0  0
  2 13  1  0  0  0  0
  3  4  1  0  0  0  0
  3  8  1  0  0  0  0
  3 11  2  0  0  0  0
  4  9  2  0  0  0  0
  4 55  1  0  0  0  0
  5 10  2  0  0  0  0
  5 11  1  0  0  0  0
  5  6  1  0  0  0  0
  6  7  1  0  0  0  0
  6 14  1  0  0  0  0
  7  8  2  0  0  0  0
  7 12  1  0  0  0  0
  9 54  1  0  0  0  0
 12 15  1  0  0  0  0
 12 16  1  0  0  0  0
 12 17  1  0  0  0  0
 18 42  1  0  0  0  0
 18 56  1  0  0  0  0
 18 57  1  0  0  0  0
 19 20  1  0  0  0  0
 19 37  2  0  0  0  0
 19 41  1  0  0  0  0
 20 21  2  0  0  0  0
 20 22  1  0  0  0  0
 22 23  1  0  0  0  0
 22 32  1  0  0  0  0
 23 24  1  0  0  0  0
 23 27  1  0  0  0  0
 23 47  1  0  0  0  0
 24 25  2  0  0  0  0
 24 26  1  0  0  0  0
 27 28  1  0  0  0  0
 27 33  1  0  0  0  0
 27 34  1  0  0  0  0
 28 29  1  0  0  0  0
 28 35  1  0  0  0  0
 28 36  1  0  0  0  0
 29 30  2  0  0  0  0
 29 31  1  0  0  0  0
 37 38  1  0  0  0  0
 37 43  1  0  0  0  0
 38 39  2  0  0  0  0
 38 44  1  0  0  0  0
 39 40  1  0  0  0  0
 39 42  1  0  0  0  0
 40 41  2  0  0  0  0
 40 45  1  0  0  0  0
 41 46  1  0  0  0  0
 42 48  1  0  0  0  0
 48 49  1  0  0  0  0
 48 51  1  0  0  0  0
 48 52  1  0  0  0  0
 49 50  3  0  0  0  0
 50 53  1  0  0  0  0
 54 58  1  0  0  0  0
 54 59  1  0  0  0  0
 54 60  1  0  0  0  0
M  END
