
  ACD/Labs07171520363D

 46 47  0  0  0  0  0  0  0  0  1 V2000
   20.5217   -7.9232   30.2510 C   0  0  0  0  0  0  0  0  0  0  0  0
   21.8917   -7.5672   30.8970 C   0  0  0  0  0  0  0  0  0  0  0  0
   21.6607   -6.1472   31.1590 N   0  0  0  0  0  0  0  0  0  0  0  0
   20.7297   -5.5132   30.2340 C   0  0  0  0  0  0  0  0  0  0  0  0
   20.3337   -6.7092   29.3170 C   0  0  0  0  0  0  0  0  0  0  0  0
   21.0637   -4.2422   29.4520 C   0  0  0  0  0  0  0  0  0  0  0  0
   22.1357   -3.9652   28.8890 O   0  0  0  0  0  0  0  0  0  0  0  0
   20.0987   -3.4102   29.3840 O   0  0  0  0  0  0  0  0  0  0  0  0
   22.1567   -5.4742   32.6620 S   0  0  0  0  0  0  0  0  0  0  0  0
   20.9927   -6.0372   33.8730 C   0  0  0  0  0  0  0  0  0  0  0  0
   23.5557   -5.9772   33.1360 O   0  0  0  0  0  0  0  0  0  0  0  0
   22.0767   -3.8852   32.6130 O   0  0  0  0  0  0  0  0  0  0  0  0
   19.7227   -5.5052   33.8350 C   0  0  0  0  0  0  0  0  0  0  0  0
   18.8027   -5.9312   34.7770 C   0  0  0  0  0  0  0  0  0  0  0  0
   19.1997   -6.8962   35.7220 C   0  0  0  0  0  0  0  0  0  0  0  0
   20.5087   -7.4222   35.7260 C   0  0  0  0  0  0  0  0  0  0  0  0
   21.4277   -6.9862   34.7790 C   0  0  0  0  0  0  0  0  0  0  0  0
   18.1377   -7.3342   36.7070 C   0  0  0  0  0  0  0  0  0  0  0  0
   18.4797   -8.0652   37.7830 N   0  0  0  0  0  0  0  0  0  0  0  0
   17.3927   -8.6132   38.6390 C   0  0  0  0  0  0  0  0  0  0  0  0
   17.0577  -10.0992   38.4960 C   0  0  0  0  0  0  0  0  0  0  0  0
   17.8907  -10.8622   37.4660 C   0  0  0  0  0  0  0  0  0  0  0  0
   17.8697  -12.3732   37.6610 C   0  0  0  0  0  0  0  0  0  0  0  0
   16.9377   -7.2732   36.4090 O   0  0  0  0  0  0  0  0  0  0  0  0
   17.9367   -8.2042   40.0520 C   0  0  0  0  0  0  0  0  0  0  0  0
   17.0727   -8.0082   40.9230 O   0  0  0  0  0  0  0  0  0  0  0  0
   19.1727   -8.0972   40.1930 O   0  0  0  0  0  0  0  0  0  0  0  0
   18.4487  -12.8172   38.6770 O   0  0  0  0  0  0  0  0  0  0  0  0
   17.3097  -13.1112   36.8300 O   0  0  0  0  0  0  0  0  0  0  0  0
   20.5627   -8.7824   29.7410 H   0  0  0  0  0  0  0  0  0  0  0  0
   19.7931   -7.9843   30.9333 H   0  0  0  0  0  0  0  0  0  0  0  0
   22.6549   -7.7152   30.2680 H   0  0  0  0  0  0  0  0  0  0  0  0
   22.0578   -8.0834   31.7372 H   0  0  0  0  0  0  0  0  0  0  0  0
   20.0180   -5.0749   30.7830 H   0  0  0  0  0  0  0  0  0  0  0  0
   19.3859   -6.6318   29.0078 H   0  0  0  0  0  0  0  0  0  0  0  0
   20.9326   -6.7688   28.5184 H   0  0  0  0  0  0  0  0  0  0  0  0
   19.4716   -4.8277   33.1436 H   0  0  0  0  0  0  0  0  0  0  0  0
   17.8739   -5.5607   34.7862 H   0  0  0  0  0  0  0  0  0  0  0  0
   20.7739   -8.1051   36.4066 H   0  0  0  0  0  0  0  0  0  0  0  0
   22.3616   -7.3430   34.7542 H   0  0  0  0  0  0  0  0  0  0  0  0
   19.4403   -8.2361   38.0023 H   0  0  0  0  0  0  0  0  0  0  0  0
   16.4918   -8.2540   38.3952 H   0  0  0  0  0  0  0  0  0  0  0  0
   16.0952  -10.1769   38.2360 H   0  0  0  0  0  0  0  0  0  0  0  0
   17.1903  -10.5345   39.3865 H   0  0  0  0  0  0  0  0  0  0  0  0
   18.8378  -10.5471   37.5268 H   0  0  0  0  0  0  0  0  0  0  0  0
   17.5366  -10.6545   36.5541 H   0  0  0  0  0  0  0  0  0  0  0  0
  1  2  1  0  0  0  0
  1  5  1  0  0  0  0
  1 30  1  0  0  0  0
  1 31  1  0  0  0  0
  2  3  1  0  0  0  0
  2 32  1  0  0  0  0
  2 33  1  0  0  0  0
  3  9  1  0  0  0  0
  3  4  1  0  0  0  0
  4  6  1  0  0  0  0
  4  5  1  0  0  0  0
  4 34  1  0  0  0  0
  5 35  1  0  0  0  0
  5 36  1  0  0  0  0
  6  8  1  0  0  0  0
  6  7  2  0  0  0  0
  9 10  1  0  0  0  0
  9 11  2  0  0  0  0
  9 12  2  0  0  0  0
 10 17  1  0  0  0  0
 10 13  2  0  0  0  0
 13 14  1  0  0  0  0
 13 37  1  0  0  0  0
 14 15  2  0  0  0  0
 14 38  1  0  0  0  0
 15 18  1  0  0  0  0
 15 16  1  0  0  0  0
 16 17  2  0  0  0  0
 16 39  1  0  0  0  0
 17 40  1  0  0  0  0
 18 19  1  0  0  0  0
 18 24  2  0  0  0  0
 19 20  1  0  0  0  0
 19 41  1  0  0  0  0
 20 25  1  0  0  0  0
 20 21  1  0  0  0  0
 20 42  1  0  0  0  0
 21 22  1  0  0  0  0
 21 43  1  0  0  0  0
 21 44  1  0  0  0  0
 22 23  1  0  0  0  0
 22 45  1  0  0  0  0
 22 46  1  0  0  0  0
 23 28  1  0  0  0  0
 23 29  2  0  0  0  0
 25 26  1  0  0  0  0
 25 27  2  0  0  0  0
M  END
