ZINC03832411
  -OEChem-08230709403D

 60 63  0     0  0  0  0  0  0999 V2000
   -0.0158   -0.4306   -2.4987 C   0  0  0  0  0  0  0  0  0  0  0  0
   -0.0366    1.0992   -2.4903 C   0  0  0  0  0  0  0  0  0  0  0  0
   -0.7766    1.6061   -3.7298 C   0  0  0  0  0  0  0  0  0  0  0  0
   -0.7527    1.5927   -1.2315 C   0  0  0  0  0  0  0  0  0  0  0  0
   -0.0127    1.0858    0.0080 C   0  0  0  0  0  0  0  0  0  0  0  0
   -0.7288    1.5792    1.2668 C   0  0  0  0  0  0  0  0  0  0  0  0
   -0.7496    3.1091    1.2752 C   0  0  0  0  0  0  0  0  0  0  0  0
   -1.4896    3.6159    0.0357 C   0  0  0  0  0  0  0  0  0  0  0  0
   -0.7734    3.1225   -1.2231 C   0  0  0  0  0  0  0  0  0  0  0  0
   -1.4353    3.5815    2.4806 N   0  0  0  0  0  0  0  0  0  0  0  0
   -0.7353    3.7167    3.6670 C   0  0  0  0  0  0  0  0  0  0  0  0
   -1.3922    4.1777    4.8300 C   0  0  0  0  0  0  0  0  0  0  0  0
   -2.7555    4.5000    4.8354 C   0  0  0  0  0  0  0  0  0  0  0  0
   -3.3385    4.9353    5.9880 C   0  0  0  0  0  0  0  0  0  0  0  0
   -2.6014    5.0591    7.1633 C   0  0  0  0  0  0  0  0  0  0  0  0
   -1.2746    4.7493    7.1950 C   0  0  0  0  0  0  0  0  0  0  0  0
   -0.6433    4.2991    6.0273 C   0  0  0  0  0  0  0  0  0  0  0  0
    0.7245    3.9629    5.9959 C   0  0  0  0  0  0  0  0  0  0  0  0
    1.2681    3.5325    4.8255 C   0  0  0  0  0  0  0  0  0  0  0  0
    1.5707    4.0777    7.2375 C   0  0  0  0  0  0  0  0  0  0  0  0
    1.4313    2.8012    8.0695 C   0  0  0  0  0  0  0  0  0  0  0  0
    2.2775    2.9160    9.3112 C   0  0  0  0  0  0  0  0  0  0  0  0
    3.5950    2.4841    9.3146 C   0  0  0  0  0  0  0  0  0  0  0  0
    4.3417    2.6092   10.4708 C   0  0  0  0  0  0  0  0  0  0  0  0
    3.8119    3.1229   11.5637 N   0  0  0  0  0  0  0  0  0  0  0  0
    2.5612    3.5396   11.5982 C   0  0  0  0  0  0  0  0  0  0  0  0
    1.7553    3.4506   10.4790 C   0  0  0  0  0  0  0  0  0  0  0  0
   -1.0384   -0.8079   -2.4910 H   0  0  0  0  0  0  0  0  0  0  0  0
    0.4944   -0.7821   -3.3955 H   0  0  0  0  0  0  0  0  0  0  0  0
    0.5114   -0.7917   -1.6157 H   0  0  0  0  0  0  0  0  0  0  0  0
    0.9860    1.4765   -2.4981 H   0  0  0  0  0  0  0  0  0  0  0  0
   -0.2664    1.2545   -4.6266 H   0  0  0  0  0  0  0  0  0  0  0  0
   -1.7991    1.2288   -3.7221 H   0  0  0  0  0  0  0  0  0  0  0  0
   -0.7913    2.6960   -3.7239 H   0  0  0  0  0  0  0  0  0  0  0  0
   -1.7753    1.2154   -1.2238 H   0  0  0  0  0  0  0  0  0  0  0  0
    0.0021   -0.0041    0.0020 H   0  0  0  0  0  0  0  0  0  0  0  0
    1.0099    1.4631    0.0003 H   0  0  0  0  0  0  0  0  0  0  0  0
   -1.7514    1.2020    1.2746 H   0  0  0  0  0  0  0  0  0  0  0  0
   -0.2017    1.2182    2.1499 H   0  0  0  0  0  0  0  0  0  0  0  0
    0.2730    3.4864    1.2675 H   0  0  0  0  0  0  0  0  0  0  0  0
   -1.5044    4.7058    0.0417 H   0  0  0  0  0  0  0  0  0  0  0  0
   -2.5122    3.2386    0.0434 H   0  0  0  0  0  0  0  0  0  0  0  0
    0.2491    3.4998   -1.2308 H   0  0  0  0  0  0  0  0  0  0  0  0
   -1.3006    3.4836   -2.1062 H   0  0  0  0  0  0  0  0  0  0  0  0
   -2.3799    3.7996    2.4472 H   0  0  0  0  0  0  0  0  0  0  0  0
   -3.3395    4.4081    3.9317 H   0  0  0  0  0  0  0  0  0  0  0  0
   -4.3885    5.1878    5.9901 H   0  0  0  0  0  0  0  0  0  0  0  0
   -3.0884    5.4061    8.0627 H   0  0  0  0  0  0  0  0  0  0  0  0
   -0.7139    4.8503    8.1125 H   0  0  0  0  0  0  0  0  0  0  0  0
    2.3164    3.2742    4.7988 H   0  0  0  0  0  0  0  0  0  0  0  0
    2.6144    4.2148    6.9546 H   0  0  0  0  0  0  0  0  0  0  0  0
    1.2384    4.9330    7.8259 H   0  0  0  0  0  0  0  0  0  0  0  0
    0.3876    2.6642    8.3525 H   0  0  0  0  0  0  0  0  0  0  0  0
    1.7636    1.9460    7.4811 H   0  0  0  0  0  0  0  0  0  0  0  0
    4.0332    2.0584    8.4240 H   0  0  0  0  0  0  0  0  0  0  0  0
    5.3697    2.2783   10.4807 H   0  0  0  0  0  0  0  0  0  0  0  0
    2.1620    3.9548   12.5118 H   0  0  0  0  0  0  0  0  0  0  0  0
    0.7316    3.7930   10.5138 H   0  0  0  0  0  0  0  0  0  0  0  0
    0.5882    3.3933    3.6440 N   0  3  0  0  0  0  0  0  0  0  0  0
    1.0505    3.0635    2.7886 H   0  0  0  0  0  0  0  0  0  0  0  0
  1  2  1  0  0  0  0
  1 28  1  0  0  0  0
  1 29  1  0  0  0  0
  1 30  1  0  0  0  0
  2  3  1  0  0  0  0
  2  4  1  0  0  0  0
  2 31  1  0  0  0  0
  3 32  1  0  0  0  0
  3 33  1  0  0  0  0
  3 34  1  0  0  0  0
  4  9  1  0  0  0  0
  4  5  1  0  0  0  0
  4 35  1  0  0  0  0
  5  6  1  0  0  0  0
  5 36  1  0  0  0  0
  5 37  1  0  0  0  0
  6  7  1  0  0  0  0
  6 38  1  0  0  0  0
  6 39  1  0  0  0  0
  7  8  1  0  0  0  0
  7 10  1  0  0  0  0
  7 40  1  0  0  0  0
  8  9  1  0  0  0  0
  8 41  1  0  0  0  0
  8 42  1  0  0  0  0
  9 43  1  0  0  0  0
  9 44  1  0  0  0  0
 10 11  1  0  0  0  0
 10 45  1  0  0  0  0
 11 12  2  0  0  0  0
 11 59  1  0  0  0  0
 12 17  1  0  0  0  0
 12 13  1  0  0  0  0
 13 14  2  0  0  0  0
 13 46  1  0  0  0  0
 14 15  1  0  0  0  0
 14 47  1  0  0  0  0
 15 16  2  0  0  0  0
 15 48  1  0  0  0  0
 16 17  1  0  0  0  0
 16 49  1  0  0  0  0
 17 18  2  0  0  0  0
 18 19  1  0  0  0  0
 18 20  1  0  0  0  0
 19 50  1  0  0  0  0
 19 59  2  0  0  0  0
 20 21  1  0  0  0  0
 20 51  1  0  0  0  0
 20 52  1  0  0  0  0
 21 22  1  0  0  0  0
 21 53  1  0  0  0  0
 21 54  1  0  0  0  0
 22 27  2  0  0  0  0
 22 23  1  0  0  0  0
 23 24  2  0  0  0  0
 23 55  1  0  0  0  0
 24 25  1  0  0  0  0
 24 56  1  0  0  0  0
 25 26  2  0  0  0  0
 26 27  1  0  0  0  0
 26 57  1  0  0  0  0
 27 58  1  0  0  0  0
 59 60  1  0  0  0  0
M  CHG  1  59   1
M  END
$$$$
