ZINC03834194
  -OEChem-08230709403D

 45 47  0     0  0  0  0  0  0999 V2000
   -0.5783    4.4098   -2.2581 C   0  0  0  0  0  0  0  0  0  0  0  0
   -0.0312    3.6913   -1.1505 O   0  0  0  0  0  0  0  0  0  0  0  0
   -0.2793    2.2846   -1.1906 C   0  0  0  0  0  0  0  0  0  0  0  0
    0.3482    1.6209    0.0369 C   0  0  0  0  0  0  0  0  0  0  0  0
   -0.3078    2.0869    1.2178 O   0  0  0  0  0  0  0  0  0  0  0  0
    0.1322    1.5915    2.4042 C   0  0  0  0  0  0  0  0  0  0  0  0
    1.1580    0.6905    2.4192 C   0  0  0  0  0  0  0  0  0  0  0  0
    1.6166    0.1752    3.6427 C   0  0  0  0  0  0  0  0  0  0  0  0
    1.0031    0.6021    4.8451 C   0  0  0  0  0  0  0  0  0  0  0  0
   -0.0490    1.5282    4.8008 C   0  0  0  0  0  0  0  0  0  0  0  0
   -0.4693    2.0164    3.5971 C   0  0  0  0  0  0  0  0  0  0  0  0
   -1.4853    2.9192    3.5544 O   0  0  0  0  0  0  0  0  0  0  0  0
   -2.0567    3.3124    4.8037 C   0  0  0  0  0  0  0  0  0  0  0  0
    1.4696    0.0794    6.0743 C   0  0  0  0  0  0  0  0  0  0  0  0
    2.5133   -0.8325    6.0376 C   0  0  0  0  0  0  0  0  0  0  0  0
    3.0620   -1.2009    4.8171 C   0  0  0  0  0  0  0  0  0  0  0  0
    2.6207   -0.7095    3.6825 N   0  0  0  0  0  0  0  0  0  0  0  0
    0.9006    0.4676    7.2789 N   0  0  0  0  0  0  0  0  0  0  0  0
   -0.3752    0.0123    7.6289 C   0  0  0  0  0  0  0  0  0  0  0  0
   -1.0261   -0.9155    6.8274 C   0  0  0  0  0  0  0  0  0  0  0  0
   -2.2897   -1.3645    7.1766 C   0  0  0  0  0  0  0  0  0  0  0  0
   -2.9029   -0.8864    8.3269 C   0  0  0  0  0  0  0  0  0  0  0  0
   -2.2544    0.0384    9.1252 C   0  0  0  0  0  0  0  0  0  0  0  0
   -0.9906    0.4843    8.7833 C   0  0  0  0  0  0  0  0  0  0  0  0
   -0.3564    1.3831    9.5677 F   0  0  0  0  0  0  0  0  0  0  0  0
   -4.4859   -1.4496    8.7634 Cl  0  0  0  0  0  0  0  0  0  0  0  0
   -2.9288   -2.2735    6.3931 O   0  0  0  0  0  0  0  0  0  0  0  0
   -0.3470    5.4698   -2.1535 H   0  0  0  0  0  0  0  0  0  0  0  0
   -0.1456    4.0332   -3.1849 H   0  0  0  0  0  0  0  0  0  0  0  0
   -1.6596    4.2744   -2.2806 H   0  0  0  0  0  0  0  0  0  0  0  0
    0.1597    1.8639   -2.0953 H   0  0  0  0  0  0  0  0  0  0  0  0
   -1.3544    2.1051   -1.1910 H   0  0  0  0  0  0  0  0  0  0  0  0
    0.2364    0.5392   -0.0380 H   0  0  0  0  0  0  0  0  0  0  0  0
    1.4072    1.8743    0.0854 H   0  0  0  0  0  0  0  0  0  0  0  0
    1.6151    0.3748    1.4931 H   0  0  0  0  0  0  0  0  0  0  0  0
   -0.5208    1.8576    5.7147 H   0  0  0  0  0  0  0  0  0  0  0  0
   -1.2874    3.7666    5.4282 H   0  0  0  0  0  0  0  0  0  0  0  0
   -2.8543    4.0341    4.6274 H   0  0  0  0  0  0  0  0  0  0  0  0
   -2.4643    2.4366    5.3085 H   0  0  0  0  0  0  0  0  0  0  0  0
    2.8979   -1.2540    6.9546 H   0  0  0  0  0  0  0  0  0  0  0  0
    3.8745   -1.9123    4.8002 H   0  0  0  0  0  0  0  0  0  0  0  0
    1.3874    1.0546    7.8784 H   0  0  0  0  0  0  0  0  0  0  0  0
   -0.5485   -1.2866    5.9326 H   0  0  0  0  0  0  0  0  0  0  0  0
   -2.7335    0.4091   10.0193 H   0  0  0  0  0  0  0  0  0  0  0  0
   -2.7513   -3.1933    6.6330 H   0  0  0  0  0  0  0  0  0  0  0  0
  1  2  1  0  0  0  0
  1 28  1  0  0  0  0
  1 29  1  0  0  0  0
  1 30  1  0  0  0  0
  2  3  1  0  0  0  0
  3  4  1  0  0  0  0
  3 31  1  0  0  0  0
  3 32  1  0  0  0  0
  4  5  1  0  0  0  0
  4 33  1  0  0  0  0
  4 34  1  0  0  0  0
  5  6  1  0  0  0  0
  6 11  2  0  0  0  0
  6  7  1  0  0  0  0
  7  8  2  0  0  0  0
  7 35  1  0  0  0  0
  8 17  1  0  0  0  0
  8  9  1  0  0  0  0
  9 10  2  0  0  0  0
  9 14  1  0  0  0  0
 10 11  1  0  0  0  0
 10 36  1  0  0  0  0
 11 12  1  0  0  0  0
 12 13  1  0  0  0  0
 13 37  1  0  0  0  0
 13 38  1  0  0  0  0
 13 39  1  0  0  0  0
 14 15  2  0  0  0  0
 14 18  1  0  0  0  0
 15 16  1  0  0  0  0
 15 40  1  0  0  0  0
 16 17  2  0  0  0  0
 16 41  1  0  0  0  0
 18 19  1  0  0  0  0
 18 42  1  0  0  0  0
 19 24  2  0  0  0  0
 19 20  1  0  0  0  0
 20 21  2  0  0  0  0
 20 43  1  0  0  0  0
 21 22  1  0  0  0  0
 21 27  1  0  0  0  0
 22 23  2  0  0  0  0
 22 26  1  0  0  0  0
 23 24  1  0  0  0  0
 23 44  1  0  0  0  0
 24 25  1  0  0  0  0
 27 45  1  0  0  0  0
M  END
$$$$
