ZINC00007460
  -OEChem-08230709403D

 40 43  0     0  0  0  0  0  0999 V2000
    0.6690    7.0553   -2.3936 C   0  0  0  0  0  0  0  0  0  0  0  0
    1.0739    7.2419   -3.7133 C   0  0  0  0  0  0  0  0  0  0  0  0
    2.0473    6.4637   -4.2673 C   0  0  0  0  0  0  0  0  0  0  0  0
    2.6469    5.4619   -3.4971 C   0  0  0  0  0  0  0  0  0  0  0  0
    2.2350    5.2708   -2.1524 C   0  0  0  0  0  0  0  0  0  0  0  0
    1.2326    6.0886   -1.6150 C   0  0  0  0  0  0  0  0  0  0  0  0
    2.8646    4.2527   -1.4128 C   0  0  0  0  0  0  0  0  0  0  0  0
    3.8006    3.5320   -1.9865 N   0  0  0  0  0  0  0  0  0  0  0  0
    4.1739    3.6948   -3.2009 N   0  0  0  0  0  0  0  0  0  0  0  0
    3.6614    4.6154   -3.9991 C   0  0  0  0  0  0  0  0  0  0  0  0
    4.1107    4.7484   -5.3032 N   0  0  0  0  0  0  0  0  0  0  0  0
    5.0264    3.8294   -5.8242 C   0  0  0  0  0  0  0  0  0  0  0  0
    5.9973    4.2489   -6.7247 C   0  0  0  0  0  0  0  0  0  0  0  0
    6.9042    3.3400   -7.2334 C   0  0  0  0  0  0  0  0  0  0  0  0
    6.8391    2.0103   -6.8556 C   0  0  0  0  0  0  0  0  0  0  0  0
    5.8692    1.5885   -5.9630 C   0  0  0  0  0  0  0  0  0  0  0  0
    4.9634    2.4941   -5.4468 C   0  0  0  0  0  0  0  0  0  0  0  0
    7.9765    0.8693   -7.5021 Cl  0  0  0  0  0  0  0  0  0  0  0  0
    2.4744    3.9969    0.0202 C   0  0  0  0  0  0  0  0  0  0  0  0
    1.3575    2.9861    0.0639 C   0  0  0  0  0  0  0  0  0  0  0  0
    1.6310    1.6293    0.1449 C   0  0  0  0  0  0  0  0  0  0  0  0
    0.5807    0.7317    0.1834 C   0  0  0  0  0  0  0  0  0  0  0  0
   -0.6682    1.1526    0.1390 N   0  0  0  0  0  0  0  0  0  0  0  0
   -0.9655    2.4354    0.0670 C   0  0  0  0  0  0  0  0  0  0  0  0
    0.0320    3.3909    0.0245 C   0  0  0  0  0  0  0  0  0  0  0  0
   -0.1037    7.6868   -1.9806 H   0  0  0  0  0  0  0  0  0  0  0  0
    0.6099    8.0155   -4.3071 H   0  0  0  0  0  0  0  0  0  0  0  0
    2.3518    6.6190   -5.2917 H   0  0  0  0  0  0  0  0  0  0  0  0
    0.9091    5.9543   -0.5934 H   0  0  0  0  0  0  0  0  0  0  0  0
    3.7898    5.4792   -5.8545 H   0  0  0  0  0  0  0  0  0  0  0  0
    6.0458    5.2857   -7.0233 H   0  0  0  0  0  0  0  0  0  0  0  0
    7.6623    3.6665   -7.9298 H   0  0  0  0  0  0  0  0  0  0  0  0
    5.8209    0.5503   -5.6697 H   0  0  0  0  0  0  0  0  0  0  0  0
    4.2069    2.1645   -4.7500 H   0  0  0  0  0  0  0  0  0  0  0  0
    2.1399    4.9280    0.4774 H   0  0  0  0  0  0  0  0  0  0  0  0
    3.3346    3.6117    0.5677 H   0  0  0  0  0  0  0  0  0  0  0  0
    2.6518    1.2781    0.1771 H   0  0  0  0  0  0  0  0  0  0  0  0
    0.7853   -0.3269    0.2462 H   0  0  0  0  0  0  0  0  0  0  0  0
   -2.0005    2.7425    0.0368 H   0  0  0  0  0  0  0  0  0  0  0  0
   -0.2178    4.4397   -0.0389 H   0  0  0  0  0  0  0  0  0  0  0  0
  1  6  2  0  0  0  0
  1  2  1  0  0  0  0
  1 26  1  0  0  0  0
  2  3  2  0  0  0  0
  2 27  1  0  0  0  0
  3  4  1  0  0  0  0
  3 28  1  0  0  0  0
  4 10  2  0  0  0  0
  4  5  1  0  0  0  0
  5  6  1  0  0  0  0
  5  7  2  0  0  0  0
  6 29  1  0  0  0  0
  7  8  1  0  0  0  0
  7 19  1  0  0  0  0
  8  9  2  0  0  0  0
  9 10  1  0  0  0  0
 10 11  1  0  0  0  0
 11 12  1  0  0  0  0
 11 30  1  0  0  0  0
 12 17  2  0  0  0  0
 12 13  1  0  0  0  0
 13 14  2  0  0  0  0
 13 31  1  0  0  0  0
 14 15  1  0  0  0  0
 14 32  1  0  0  0  0
 15 16  2  0  0  0  0
 15 18  1  0  0  0  0
 16 17  1  0  0  0  0
 16 33  1  0  0  0  0
 17 34  1  0  0  0  0
 19 20  1  0  0  0  0
 19 35  1  0  0  0  0
 19 36  1  0  0  0  0
 20 25  2  0  0  0  0
 20 21  1  0  0  0  0
 21 22  2  0  0  0  0
 21 37  1  0  0  0  0
 22 23  1  0  0  0  0
 22 38  1  0  0  0  0
 23 24  2  0  0  0  0
 24 25  1  0  0  0  0
 24 39  1  0  0  0  0
 25 40  1  0  0  0  0
M  END
$$$$
