ZINC03834202
  -OEChem-08230709403D

 59 63  0     0  0  0  0  0  0999 V2000
   -4.8284  -11.0632   -1.7756 C   0  0  0  0  0  0  0  0  0  0  0  0
   -2.4301  -10.8896   -2.0635 C   0  0  0  0  0  0  0  0  0  0  0  0
   -1.1378  -10.4125   -1.3966 C   0  0  0  0  0  0  0  0  0  0  0  0
   -2.3580   -8.6268   -0.3098 C   0  0  0  0  0  0  0  0  0  0  0  0
   -3.6503   -9.1040   -0.9767 C   0  0  0  0  0  0  0  0  0  0  0  0
    0.0403   -8.4532   -0.5977 C   0  0  0  0  0  0  0  0  0  0  0  0
    0.0199   -6.9234   -0.6059 C   0  0  0  0  0  0  0  0  0  0  0  0
    1.3260   -6.3927   -0.0114 C   0  0  0  0  0  0  0  0  0  0  0  0
    1.3065   -4.9279   -0.0193 N   0  0  0  0  0  0  0  0  0  0  0  0
    0.8073   -4.2611    1.0549 C   0  0  0  0  0  0  0  0  0  0  0  0
    0.7735   -2.9119    1.0803 C   0  0  0  0  0  0  0  0  0  0  0  0
    1.2633   -2.1768   -0.0231 C   0  0  0  0  0  0  0  0  0  0  0  0
    1.7661   -2.8658   -1.1173 C   0  0  0  0  0  0  0  0  0  0  0  0
    1.7827   -4.2664   -1.0902 C   0  0  0  0  0  0  0  0  0  0  0  0
    2.2255   -4.8887   -2.0429 O   0  0  0  0  0  0  0  0  0  0  0  0
    1.2348   -0.6962   -0.0139 C   0  0  0  0  0  0  0  0  0  0  0  0
    0.0021   -0.0041    0.0020 C   0  0  0  0  0  0  0  0  0  0  0  0
   -0.0157    1.3063    0.0092 N   0  0  0  0  0  0  0  0  0  0  0  0
    1.1217    2.0117    0.0022 C   0  0  0  0  0  0  0  0  0  0  0  0
    1.3782    3.3861    0.0087 C   0  0  0  0  0  0  0  0  0  0  0  0
    2.7666    3.5502   -0.0034 C   0  0  0  0  0  0  0  0  0  0  0  0
    3.3341    2.3675   -0.0162 N   0  0  0  0  0  0  0  0  0  0  0  0
    2.3412    1.3813   -0.0129 N   0  0  0  0  0  0  0  0  0  0  0  0
    2.4012    0.0194   -0.0212 C   0  0  0  0  0  0  0  0  0  0  0  0
    0.3644    4.4701    0.0246 C   0  0  0  0  0  0  0  0  0  0  0  0
    0.4485    5.5089    0.9463 C   0  0  0  0  0  0  0  0  0  0  0  0
   -0.4946    6.4787    0.9296 C   0  0  0  0  0  0  0  0  0  0  0  0
   -1.5527    5.9537   -0.4083 S   0  0  0  0  0  0  0  0  0  0  0  0
   -0.6688    4.4730   -0.8692 C   0  0  0  0  0  0  0  0  0  0  0  0
   -4.7698  -12.1474   -1.8716 H   0  0  0  0  0  0  0  0  0  0  0  0
   -5.6589  -10.8009   -1.1203 H   0  0  0  0  0  0  0  0  0  0  0  0
   -4.9869  -10.6195   -2.7585 H   0  0  0  0  0  0  0  0  0  0  0  0
   -2.5438  -10.3979   -3.0297 H   0  0  0  0  0  0  0  0  0  0  0  0
   -2.3877  -11.9692   -2.2077 H   0  0  0  0  0  0  0  0  0  0  0  0
   -0.2904  -10.6346   -2.0452 H   0  0  0  0  0  0  0  0  0  0  0  0
   -1.0103  -10.9245   -0.4429 H   0  0  0  0  0  0  0  0  0  0  0  0
   -2.2444   -9.1186    0.6564 H   0  0  0  0  0  0  0  0  0  0  0  0
   -2.4002   -7.5472   -0.1659 H   0  0  0  0  0  0  0  0  0  0  0  0
   -3.7778   -8.5920   -1.9304 H   0  0  0  0  0  0  0  0  0  0  0  0
   -4.4977   -8.8818   -0.3281 H   0  0  0  0  0  0  0  0  0  0  0  0
    0.8813   -8.8086   -1.1931 H   0  0  0  0  0  0  0  0  0  0  0  0
    0.1442   -8.8096    0.4271 H   0  0  0  0  0  0  0  0  0  0  0  0
   -0.8211   -6.5680   -0.0106 H   0  0  0  0  0  0  0  0  0  0  0  0
   -0.0841   -6.5669   -1.6308 H   0  0  0  0  0  0  0  0  0  0  0  0
    2.1670   -6.7481   -0.6068 H   0  0  0  0  0  0  0  0  0  0  0  0
    1.4300   -6.7492    1.0134 H   0  0  0  0  0  0  0  0  0  0  0  0
    0.4320   -4.8189    1.9001 H   0  0  0  0  0  0  0  0  0  0  0  0
    0.3732   -2.3960    1.9405 H   0  0  0  0  0  0  0  0  0  0  0  0
    2.1429   -2.3301   -1.9760 H   0  0  0  0  0  0  0  0  0  0  0  0
   -0.9262   -0.5560    0.0079 H   0  0  0  0  0  0  0  0  0  0  0  0
    3.2871    4.4965   -0.0025 H   0  0  0  0  0  0  0  0  0  0  0  0
    3.3549   -0.4872   -0.0338 H   0  0  0  0  0  0  0  0  0  0  0  0
    1.2547    5.5407    1.6642 H   0  0  0  0  0  0  0  0  0  0  0  0
   -0.5839    7.3485    1.5635 H   0  0  0  0  0  0  0  0  0  0  0  0
   -0.8936    3.7626   -1.6510 H   0  0  0  0  0  0  0  0  0  0  0  0
   -3.5700  -10.5657   -1.1799 N   0  3  0  0  0  0  0  0  0  0  0  0
   -3.4279  -11.0217   -0.2710 H   0  0  0  0  0  0  0  0  0  0  0  0
   -1.2183   -8.9505   -1.1933 N   0  3  0  0  0  0  0  0  0  0  0  0
   -1.3603   -8.4944   -2.1021 H   0  0  0  0  0  0  0  0  0  0  0  0
  1 30  1  0  0  0  0
  1 31  1  0  0  0  0
  1 32  1  0  0  0  0
  1 56  1  0  0  0  0
  2  3  1  0  0  0  0
  2 33  1  0  0  0  0
  2 34  1  0  0  0  0
  2 56  1  0  0  0  0
  3 35  1  0  0  0  0
  3 36  1  0  0  0  0
  3 58  1  0  0  0  0
  4  5  1  0  0  0  0
  4 37  1  0  0  0  0
  4 38  1  0  0  0  0
  4 58  1  0  0  0  0
  5 39  1  0  0  0  0
  5 40  1  0  0  0  0
  5 56  1  0  0  0  0
  6  7  1  0  0  0  0
  6 41  1  0  0  0  0
  6 42  1  0  0  0  0
  6 58  1  0  0  0  0
  7  8  1  0  0  0  0
  7 43  1  0  0  0  0
  7 44  1  0  0  0  0
  8  9  1  0  0  0  0
  8 45  1  0  0  0  0
  8 46  1  0  0  0  0
  9 14  1  0  0  0  0
  9 10  1  0  0  0  0
 10 11  2  0  0  0  0
 10 47  1  0  0  0  0
 11 12  1  0  0  0  0
 11 48  1  0  0  0  0
 12 13  2  0  0  0  0
 12 16  1  0  0  0  0
 13 14  1  0  0  0  0
 13 49  1  0  0  0  0
 14 15  2  0  0  0  0
 16 24  2  0  0  0  0
 16 17  1  0  0  0  0
 17 18  2  0  0  0  0
 17 50  1  0  0  0  0
 18 19  1  0  0  0  0
 19 23  1  0  0  0  0
 19 20  2  0  0  0  0
 20 21  1  0  0  0  0
 20 25  1  0  0  0  0
 21 22  2  0  0  0  0
 21 51  1  0  0  0  0
 22 23  1  0  0  0  0
 23 24  1  0  0  0  0
 24 52  1  0  0  0  0
 25 29  2  0  0  0  0
 25 26  1  0  0  0  0
 26 27  2  0  0  0  0
 26 53  1  0  0  0  0
 27 28  1  0  0  0  0
 27 54  1  0  0  0  0
 28 29  1  0  0  0  0
 29 55  1  0  0  0  0
 56 57  1  0  0  0  0
 58 59  1  0  0  0  0
M  CHG  2  56   1  58   1
M  END
$$$$
