ZINC04617988
  -OEChem-08230709403D

 47 50  0     0  0  0  0  0  0999 V2000
    5.1410    0.5453   -0.0073 C   0  0  0  0  0  0  0  0  0  0  0  0
    4.1335   -0.4022    0.0237 C   0  0  0  0  0  0  0  0  0  0  0  0
    2.8116   -0.0074    0.0455 C   0  0  0  0  0  0  0  0  0  0  0  0
    2.4921    1.3505    0.0358 C   0  0  0  0  0  0  0  0  0  0  0  0
    3.5125    2.3010   -0.0017 C   0  0  0  0  0  0  0  0  0  0  0  0
    4.8307    1.8935   -0.0170 C   0  0  0  0  0  0  0  0  0  0  0  0
    1.0764    1.7808    0.0591 C   0  0  0  0  0  0  0  0  0  0  0  0
    0.6232    3.0690    0.0533 C   0  0  0  0  0  0  0  0  0  0  0  0
   -0.7766    3.0304    0.0825 C   0  0  0  0  0  0  0  0  0  0  0  0
   -1.1571    1.7741    0.0990 N   0  0  0  0  0  0  0  0  0  0  0  0
   -0.0145    0.9641    0.0912 N   0  0  0  0  0  0  0  0  0  0  0  0
   -0.0013   -0.0357    0.1065 H   0  0  0  0  0  0  0  0  0  0  0  0
   -1.6268    4.1440    0.0869 N   0  0  0  0  0  0  0  0  0  0  0  0
   -1.1084    5.3878    0.0616 C   0  0  0  0  0  0  0  0  0  0  0  0
    0.0975    5.5435    0.0349 O   0  0  0  0  0  0  0  0  0  0  0  0
   -2.0029    6.5594    0.0662 C   0  0  0  0  0  0  0  0  0  0  0  0
   -3.3867    6.3879   -0.0269 C   0  0  0  0  0  0  0  0  0  0  0  0
   -4.2172    7.4868   -0.0216 C   0  0  0  0  0  0  0  0  0  0  0  0
   -3.6881    8.7642    0.0762 C   0  0  0  0  0  0  0  0  0  0  0  0
   -2.3242    8.9503    0.1688 C   0  0  0  0  0  0  0  0  0  0  0  0
   -1.4706    7.8539    0.1699 C   0  0  0  0  0  0  0  0  0  0  0  0
   -0.0976    8.0383    0.2684 N   0  0  0  0  0  0  0  0  0  0  0  0
    0.4469    9.3791    0.4966 C   0  0  0  0  0  0  0  0  0  0  0  0
    1.9507    9.3059    0.5634 C   0  0  0  0  0  0  0  0  0  0  0  0
    2.5983    9.1017    1.7722 C   0  0  0  0  0  0  0  0  0  0  0  0
    3.9786    9.0360    1.7940 C   0  0  0  0  0  0  0  0  0  0  0  0
    4.6781    9.1745    0.6848 N   0  0  0  0  0  0  0  0  0  0  0  0
    4.0962    9.3746   -0.4816 C   0  0  0  0  0  0  0  0  0  0  0  0
    2.7197    9.4470   -0.5817 C   0  0  0  0  0  0  0  0  0  0  0  0
    6.1742    0.2313   -0.0235 H   0  0  0  0  0  0  0  0  0  0  0  0
    4.3822   -1.4532    0.0312 H   0  0  0  0  0  0  0  0  0  0  0  0
    2.0260   -0.7480    0.0704 H   0  0  0  0  0  0  0  0  0  0  0  0
    3.2713    3.3537   -0.0143 H   0  0  0  0  0  0  0  0  0  0  0  0
    5.6217    2.6284   -0.0416 H   0  0  0  0  0  0  0  0  0  0  0  0
    1.2349    3.9587    0.0297 H   0  0  0  0  0  0  0  0  0  0  0  0
   -2.5886    4.0198    0.1082 H   0  0  0  0  0  0  0  0  0  0  0  0
   -3.8044    5.3948   -0.1025 H   0  0  0  0  0  0  0  0  0  0  0  0
   -5.2864    7.3524   -0.0936 H   0  0  0  0  0  0  0  0  0  0  0  0
   -4.3478    9.6193    0.0802 H   0  0  0  0  0  0  0  0  0  0  0  0
   -1.9200    9.9489    0.2446 H   0  0  0  0  0  0  0  0  0  0  0  0
    0.5008    7.2794    0.1861 H   0  0  0  0  0  0  0  0  0  0  0  0
    0.1511   10.0355   -0.3218 H   0  0  0  0  0  0  0  0  0  0  0  0
    0.0602    9.7732    1.4364 H   0  0  0  0  0  0  0  0  0  0  0  0
    2.0311    8.9920    2.6847 H   0  0  0  0  0  0  0  0  0  0  0  0
    4.4905    8.8738    2.7311 H   0  0  0  0  0  0  0  0  0  0  0  0
    4.7023    9.4834   -1.3688 H   0  0  0  0  0  0  0  0  0  0  0  0
    2.2490    9.6117   -1.5396 H   0  0  0  0  0  0  0  0  0  0  0  0
  1  6  2  0  0  0  0
  1  2  1  0  0  0  0
  1 30  1  0  0  0  0
  2  3  2  0  0  0  0
  2 31  1  0  0  0  0
  3  4  1  0  0  0  0
  3 32  1  0  0  0  0
  4  5  2  0  0  0  0
  4  7  1  0  0  0  0
  5  6  1  0  0  0  0
  5 33  1  0  0  0  0
  6 34  1  0  0  0  0
  7 11  1  0  0  0  0
  7  8  2  0  0  0  0
  8  9  1  0  0  0  0
  8 35  1  0  0  0  0
  9 10  2  0  0  0  0
  9 13  1  0  0  0  0
 10 11  1  0  0  0  0
 11 12  1  0  0  0  0
 13 14  1  0  0  0  0
 13 36  1  0  0  0  0
 14 15  2  0  0  0  0
 14 16  1  0  0  0  0
 16 21  2  0  0  0  0
 16 17  1  0  0  0  0
 17 18  2  0  0  0  0
 17 37  1  0  0  0  0
 18 19  1  0  0  0  0
 18 38  1  0  0  0  0
 19 20  2  0  0  0  0
 19 39  1  0  0  0  0
 20 21  1  0  0  0  0
 20 40  1  0  0  0  0
 21 22  1  0  0  0  0
 22 23  1  0  0  0  0
 22 41  1  0  0  0  0
 23 24  1  0  0  0  0
 23 42  1  0  0  0  0
 23 43  1  0  0  0  0
 24 29  2  0  0  0  0
 24 25  1  0  0  0  0
 25 26  2  0  0  0  0
 25 44  1  0  0  0  0
 26 27  1  0  0  0  0
 26 45  1  0  0  0  0
 27 28  2  0  0  0  0
 28 29  1  0  0  0  0
 28 46  1  0  0  0  0
 29 47  1  0  0  0  0
M  END
$$$$
