ZINC03832403
  -OEChem-08230709403D

 50 53  0     0  0  0  0  0  0999 V2000
   -1.5087   -0.8853    0.1378 C   0  0  0  0  0  0  0  0  0  0  0  0
   -2.6512   -0.0866    0.1324 C   0  0  0  0  0  0  0  0  0  0  0  0
   -2.5598    1.2717    0.1124 C   0  0  0  0  0  0  0  0  0  0  0  0
   -1.2946    1.8806    0.1022 C   0  0  0  0  0  0  0  0  0  0  0  0
   -1.1423    3.2759    0.0759 C   0  0  0  0  0  0  0  0  0  0  0  0
    0.0571    3.8076    0.0623 N   0  0  0  0  0  0  0  0  0  0  0  0
    1.1682    3.0752    0.0674 C   0  0  0  0  0  0  0  0  0  0  0  0
    1.1236    1.6967    0.0870 C   0  0  0  0  0  0  0  0  0  0  0  0
   -0.1316    1.0659    0.1023 C   0  0  0  0  0  0  0  0  0  0  0  0
   -0.2649   -0.3308    0.1232 C   0  0  0  0  0  0  0  0  0  0  0  0
    2.4065    3.7163    0.0520 N   0  0  0  0  0  0  0  0  0  0  0  0
    2.4698    5.0569   -0.0722 C   0  0  0  0  0  0  0  0  0  0  0  0
    1.4480    5.7162   -0.0748 O   0  0  0  0  0  0  0  0  0  0  0  0
    3.7775    5.7238   -0.2048 C   0  0  0  0  0  0  0  0  0  0  0  0
    4.9449    4.9649   -0.3251 C   0  0  0  0  0  0  0  0  0  0  0  0
    6.1639    5.5943   -0.4492 C   0  0  0  0  0  0  0  0  0  0  0  0
    6.2401    6.9783   -0.4560 C   0  0  0  0  0  0  0  0  0  0  0  0
    5.0970    7.7416   -0.3383 C   0  0  0  0  0  0  0  0  0  0  0  0
    3.8577    7.1251   -0.2170 C   0  0  0  0  0  0  0  0  0  0  0  0
    2.7049    7.8912   -0.1042 N   0  0  0  0  0  0  0  0  0  0  0  0
    2.8020    9.3489    0.0055 C   0  0  0  0  0  0  0  0  0  0  0  0
    1.3979    9.9466    0.1167 C   0  0  0  0  0  0  0  0  0  0  0  0
    0.6309    9.6989   -1.1859 C   0  0  0  0  0  0  0  0  0  0  0  0
   -0.7430   10.3680   -1.0951 C   0  0  0  0  0  0  0  0  0  0  0  0
   -0.5756   11.7642   -0.8405 O   0  0  0  0  0  0  0  0  0  0  0  0
    0.0935   12.0572    0.3877 C   0  0  0  0  0  0  0  0  0  0  0  0
    1.5011   11.4560    0.3565 C   0  0  0  0  0  0  0  0  0  0  0  0
   -1.6115   -1.9603    0.1542 H   0  0  0  0  0  0  0  0  0  0  0  0
   -3.6252   -0.5531    0.1440 H   0  0  0  0  0  0  0  0  0  0  0  0
   -3.4544    1.8767    0.1081 H   0  0  0  0  0  0  0  0  0  0  0  0
   -2.0142    3.9131    0.0713 H   0  0  0  0  0  0  0  0  0  0  0  0
    2.0336    1.1151    0.0910 H   0  0  0  0  0  0  0  0  0  0  0  0
    0.6120   -0.9612    0.1279 H   0  0  0  0  0  0  0  0  0  0  0  0
    3.2223    3.1975    0.1307 H   0  0  0  0  0  0  0  0  0  0  0  0
    4.8913    3.8863   -0.3210 H   0  0  0  0  0  0  0  0  0  0  0  0
    7.0650    5.0062   -0.5420 H   0  0  0  0  0  0  0  0  0  0  0  0
    7.2007    7.4622   -0.5538 H   0  0  0  0  0  0  0  0  0  0  0  0
    5.1651    8.8195   -0.3442 H   0  0  0  0  0  0  0  0  0  0  0  0
    1.8354    7.4612   -0.0980 H   0  0  0  0  0  0  0  0  0  0  0  0
    3.3788    9.6089    0.8930 H   0  0  0  0  0  0  0  0  0  0  0  0
    3.2975    9.7477   -0.8796 H   0  0  0  0  0  0  0  0  0  0  0  0
    0.8681    9.4808    0.9476 H   0  0  0  0  0  0  0  0  0  0  0  0
    1.1874   10.1218   -2.0223 H   0  0  0  0  0  0  0  0  0  0  0  0
    0.5047    8.6267   -1.3361 H   0  0  0  0  0  0  0  0  0  0  0  0
   -1.3143    9.9166   -0.2839 H   0  0  0  0  0  0  0  0  0  0  0  0
   -1.2767   10.2314   -2.0356 H   0  0  0  0  0  0  0  0  0  0  0  0
   -0.4668   11.6278    1.2183 H   0  0  0  0  0  0  0  0  0  0  0  0
    0.1624   13.1375    0.5156 H   0  0  0  0  0  0  0  0  0  0  0  0
    1.9972   11.6403    1.3094 H   0  0  0  0  0  0  0  0  0  0  0  0
    2.0751   11.9143   -0.4488 H   0  0  0  0  0  0  0  0  0  0  0  0
  1 10  2  0  0  0  0
  1  2  1  0  0  0  0
  1 28  1  0  0  0  0
  2  3  2  0  0  0  0
  2 29  1  0  0  0  0
  3  4  1  0  0  0  0
  3 30  1  0  0  0  0
  4  9  2  0  0  0  0
  4  5  1  0  0  0  0
  5  6  2  0  0  0  0
  5 31  1  0  0  0  0
  6  7  1  0  0  0  0
  7  8  2  0  0  0  0
  7 11  1  0  0  0  0
  8  9  1  0  0  0  0
  8 32  1  0  0  0  0
  9 10  1  0  0  0  0
 10 33  1  0  0  0  0
 11 12  1  0  0  0  0
 11 34  1  0  0  0  0
 12 13  2  0  0  0  0
 12 14  1  0  0  0  0
 14 19  2  0  0  0  0
 14 15  1  0  0  0  0
 15 16  2  0  0  0  0
 15 35  1  0  0  0  0
 16 17  1  0  0  0  0
 16 36  1  0  0  0  0
 17 18  2  0  0  0  0
 17 37  1  0  0  0  0
 18 19  1  0  0  0  0
 18 38  1  0  0  0  0
 19 20  1  0  0  0  0
 20 21  1  0  0  0  0
 20 39  1  0  0  0  0
 21 22  1  0  0  0  0
 21 40  1  0  0  0  0
 21 41  1  0  0  0  0
 22 27  1  0  0  0  0
 22 23  1  0  0  0  0
 22 42  1  0  0  0  0
 23 24  1  0  0  0  0
 23 43  1  0  0  0  0
 23 44  1  0  0  0  0
 24 25  1  0  0  0  0
 24 45  1  0  0  0  0
 24 46  1  0  0  0  0
 25 26  1  0  0  0  0
 26 27  1  0  0  0  0
 26 47  1  0  0  0  0
 26 48  1  0  0  0  0
 27 49  1  0  0  0  0
 27 50  1  0  0  0  0
M  END
$$$$
