ZINC04617986
  -OEChem-08230709403D

 40 44  0     0  0  0  0  0  0999 V2000
    2.8932   14.5101    0.0585 C   0  0  0  0  0  0  0  0  0  0  0  0
    3.9335   13.5918    0.0431 C   0  0  0  0  0  0  0  0  0  0  0  0
    3.6785   12.2499    0.0375 C   0  0  0  0  0  0  0  0  0  0  0  0
    2.3570   11.7914    0.0474 C   0  0  0  0  0  0  0  0  0  0  0  0
    1.3030   12.7221    0.0630 C   0  0  0  0  0  0  0  0  0  0  0  0
    1.5824   14.0815    0.0688 C   0  0  0  0  0  0  0  0  0  0  0  0
    0.1355   11.9831    0.0697 N   0  0  0  0  0  0  0  0  0  0  0  0
   -0.7964   12.3457    0.0807 H   0  0  0  0  0  0  0  0  0  0  0  0
    0.4932   10.6611    0.0585 C   0  0  0  0  0  0  0  0  0  0  0  0
   -0.4505    9.5258    0.0607 C   0  0  0  0  0  0  0  0  0  0  0  0
   -0.0947    8.1018    0.0488 C   0  0  0  0  0  0  0  0  0  0  0  0
    1.1199    7.4098    0.0342 C   0  0  0  0  0  0  0  0  0  0  0  0
    1.1271    6.0470    0.0306 C   0  0  0  0  0  0  0  0  0  0  0  0
   -0.0758    5.3308    0.0319 C   0  0  0  0  0  0  0  0  0  0  0  0
   -1.2908    6.0008    0.0471 C   0  0  0  0  0  0  0  0  0  0  0  0
   -1.3094    7.3917    0.0557 C   0  0  0  0  0  0  0  0  0  0  0  0
   -2.3176    8.3230    0.0706 N   0  0  0  0  0  0  0  0  0  0  0  0
   -3.2960    8.1165    0.0784 H   0  0  0  0  0  0  0  0  0  0  0  0
   -1.7613    9.6060    0.0732 N   0  0  0  0  0  0  0  0  0  0  0  0
   -0.0513    3.8476    0.0232 C   0  0  0  0  0  0  0  0  0  0  0  0
   -1.2457    3.1286    0.0308 C   0  0  0  0  0  0  0  0  0  0  0  0
   -1.2203    1.7487    0.0174 C   0  0  0  0  0  0  0  0  0  0  0  0
   -0.0126    1.0758    0.0080 C   0  0  0  0  0  0  0  0  0  0  0  0
    1.1810    1.7841    0.0004 C   0  0  0  0  0  0  0  0  0  0  0  0
    1.1649    3.1693    0.0080 C   0  0  0  0  0  0  0  0  0  0  0  0
    2.3659    1.1185   -0.0141 O   0  0  0  0  0  0  0  0  0  0  0  0
    3.1116   15.5678    0.0623 H   0  0  0  0  0  0  0  0  0  0  0  0
    4.9552   13.9418    0.0358 H   0  0  0  0  0  0  0  0  0  0  0  0
    4.4958   11.5440    0.0259 H   0  0  0  0  0  0  0  0  0  0  0  0
    0.7768   14.8007    0.0804 H   0  0  0  0  0  0  0  0  0  0  0  0
    2.0522    7.9550    0.0289 H   0  0  0  0  0  0  0  0  0  0  0  0
    2.0674    5.5158    0.0232 H   0  0  0  0  0  0  0  0  0  0  0  0
   -2.2170    5.4454    0.0526 H   0  0  0  0  0  0  0  0  0  0  0  0
   -2.1907    3.6513    0.0426 H   0  0  0  0  0  0  0  0  0  0  0  0
   -2.1464    1.1930    0.0184 H   0  0  0  0  0  0  0  0  0  0  0  0
    0.0021   -0.0041    0.0020 H   0  0  0  0  0  0  0  0  0  0  0  0
    2.0929    3.7217    0.0017 H   0  0  0  0  0  0  0  0  0  0  0  0
    2.7005    0.9304   -0.9016 H   0  0  0  0  0  0  0  0  0  0  0  0
    1.8011   10.5548    0.0510 N   0  3  0  0  0  0  0  0  0  0  0  0
    2.3234    9.6708    0.0483 H   0  0  0  0  0  0  0  0  0  0  0  0
  1  6  2  0  0  0  0
  1  2  1  0  0  0  0
  1 27  1  0  0  0  0
  2  3  2  0  0  0  0
  2 28  1  0  0  0  0
  3  4  1  0  0  0  0
  3 29  1  0  0  0  0
  4  5  2  0  0  0  0
  4 39  1  0  0  0  0
  5  6  1  0  0  0  0
  5  7  1  0  0  0  0
  6 30  1  0  0  0  0
  7  8  1  0  0  0  0
  7  9  1  0  0  0  0
  9 10  1  0  0  0  0
  9 39  2  0  0  0  0
 10 19  2  0  0  0  0
 10 11  1  0  0  0  0
 11 16  2  0  0  0  0
 11 12  1  0  0  0  0
 12 13  2  0  0  0  0
 12 31  1  0  0  0  0
 13 14  1  0  0  0  0
 13 32  1  0  0  0  0
 14 15  2  0  0  0  0
 14 20  1  0  0  0  0
 15 16  1  0  0  0  0
 15 33  1  0  0  0  0
 16 17  1  0  0  0  0
 17 18  1  0  0  0  0
 17 19  1  0  0  0  0
 20 25  2  0  0  0  0
 20 21  1  0  0  0  0
 21 22  2  0  0  0  0
 21 34  1  0  0  0  0
 22 23  1  0  0  0  0
 22 35  1  0  0  0  0
 23 24  2  0  0  0  0
 23 36  1  0  0  0  0
 24 25  1  0  0  0  0
 24 26  1  0  0  0  0
 25 37  1  0  0  0  0
 26 38  1  0  0  0  0
 39 40  1  0  0  0  0
M  CHG  1  39   1
M  END
$$$$
