ZINC03832409
  -OEChem-08230709403D

 60 64  0     0  0  0  0  0  0999 V2000
   -4.3905   15.9603    6.6715 C   0  0  0  0  0  0  0  0  0  0  0  0
   -2.3744   14.7097    6.1856 C   0  0  0  0  0  0  0  0  0  0  0  0
   -1.4751   14.2086    5.0531 C   0  0  0  0  0  0  0  0  0  0  0  0
   -3.4087   13.9933    3.6130 C   0  0  0  0  0  0  0  0  0  0  0  0
   -4.3079   14.4945    4.7455 C   0  0  0  0  0  0  0  0  0  0  0  0
   -1.3925   12.7428    3.1271 C   0  0  0  0  0  0  0  0  0  0  0  0
   -2.1498   11.6281    2.4025 C   0  0  0  0  0  0  0  0  0  0  0  0
   -1.2642   11.0424    1.3010 C   0  0  0  0  0  0  0  0  0  0  0  0
   -1.9893    9.9751    0.6072 N   0  0  0  0  0  0  0  0  0  0  0  0
   -1.8979    8.6461    0.9059 C   0  0  0  0  0  0  0  0  0  0  0  0
   -2.6945    7.9334    0.0728 C   0  0  0  0  0  0  0  0  0  0  0  0
   -3.3483    8.9037   -0.8198 C   0  0  0  0  0  0  0  0  0  0  0  0
   -2.8673   10.1678   -0.4374 C   0  0  0  0  0  0  0  0  0  0  0  0
   -3.3130   11.3002   -1.1113 C   0  0  0  0  0  0  0  0  0  0  0  0
   -4.2184   11.1747   -2.1421 C   0  0  0  0  0  0  0  0  0  0  0  0
   -4.6928    9.9262   -2.5190 C   0  0  0  0  0  0  0  0  0  0  0  0
   -4.2638    8.7926   -1.8651 C   0  0  0  0  0  0  0  0  0  0  0  0
   -2.8768    6.4621    0.0662 C   0  0  0  0  0  0  0  0  0  0  0  0
   -1.7698    5.6112    0.0555 C   0  0  0  0  0  0  0  0  0  0  0  0
   -1.9965    4.2346    0.0444 C   0  0  0  0  0  0  0  0  0  0  0  0
   -3.3093    3.7646    0.0549 C   0  0  0  0  0  0  0  0  0  0  0  0
   -4.3269    4.6012    0.0696 N   0  0  0  0  0  0  0  0  0  0  0  0
   -4.1565    5.9078    0.0754 C   0  0  0  0  0  0  0  0  0  0  0  0
   -0.8570    3.2843    0.0279 C   0  0  0  0  0  0  0  0  0  0  0  0
   -1.0765    1.9102    0.0166 C   0  0  0  0  0  0  0  0  0  0  0  0
   -0.0126    1.0758    0.0080 C   0  0  0  0  0  0  0  0  0  0  0  0
    1.3613    2.2149    0.0010 S   0  0  0  0  0  0  0  0  0  0  0  0
    0.4320    3.7387    0.0180 C   0  0  0  0  0  0  0  0  0  0  0  0
   -3.8150   16.6763    7.2582 H   0  0  0  0  0  0  0  0  0  0  0  0
   -5.2458   16.4638    6.2209 H   0  0  0  0  0  0  0  0  0  0  0  0
   -4.7418   15.1579    7.3204 H   0  0  0  0  0  0  0  0  0  0  0  0
   -2.7096   13.8635    6.7853 H   0  0  0  0  0  0  0  0  0  0  0  0
   -1.8152   15.4024    6.8146 H   0  0  0  0  0  0  0  0  0  0  0  0
   -0.6245   13.6726    5.4742 H   0  0  0  0  0  0  0  0  0  0  0  0
   -1.1176   15.0570    4.4696 H   0  0  0  0  0  0  0  0  0  0  0  0
   -3.0734   14.8395    3.0133 H   0  0  0  0  0  0  0  0  0  0  0  0
   -3.9677   13.3004    2.9843 H   0  0  0  0  0  0  0  0  0  0  0  0
   -4.6651   13.6458    5.3289 H   0  0  0  0  0  0  0  0  0  0  0  0
   -5.1585   15.0305    4.3244 H   0  0  0  0  0  0  0  0  0  0  0  0
   -0.4833   12.3360    3.5697 H   0  0  0  0  0  0  0  0  0  0  0  0
   -1.1313   13.5263    2.4158 H   0  0  0  0  0  0  0  0  0  0  0  0
   -3.0590   12.0349    1.9599 H   0  0  0  0  0  0  0  0  0  0  0  0
   -2.4110   10.8445    3.1138 H   0  0  0  0  0  0  0  0  0  0  0  0
   -0.3549   10.6357    1.7436 H   0  0  0  0  0  0  0  0  0  0  0  0
   -1.0029   11.8260    0.5897 H   0  0  0  0  0  0  0  0  0  0  0  0
   -1.2815    8.2258    1.6867 H   0  0  0  0  0  0  0  0  0  0  0  0
   -2.9503   12.2767   -0.8262 H   0  0  0  0  0  0  0  0  0  0  0  0
   -4.5620   12.0566   -2.6623 H   0  0  0  0  0  0  0  0  0  0  0  0
   -5.4023    9.8431   -3.3290 H   0  0  0  0  0  0  0  0  0  0  0  0
   -4.6352    7.8224   -2.1605 H   0  0  0  0  0  0  0  0  0  0  0  0
   -0.7653    6.0078    0.0519 H   0  0  0  0  0  0  0  0  0  0  0  0
   -3.4944    2.7005    0.0506 H   0  0  0  0  0  0  0  0  0  0  0  0
   -5.0189    6.5578    0.0872 H   0  0  0  0  0  0  0  0  0  0  0  0
   -2.0820    1.5159    0.0183 H   0  0  0  0  0  0  0  0  0  0  0  0
    0.0021   -0.0041    0.0020 H   0  0  0  0  0  0  0  0  0  0  0  0
    0.7942    4.7562    0.0200 H   0  0  0  0  0  0  0  0  0  0  0  0
   -3.5304   15.4186    5.5978 N   0  3  0  0  0  0  0  0  0  0  0  0
   -3.1873   16.1958    5.0212 H   0  0  0  0  0  0  0  0  0  0  0  0
   -2.2524   13.2845    4.2010 N   0  3  0  0  0  0  0  0  0  0  0  0
   -2.5953   12.5073    4.7777 H   0  0  0  0  0  0  0  0  0  0  0  0
  1 29  1  0  0  0  0
  1 30  1  0  0  0  0
  1 31  1  0  0  0  0
  1 57  1  0  0  0  0
  2  3  1  0  0  0  0
  2 32  1  0  0  0  0
  2 33  1  0  0  0  0
  2 57  1  0  0  0  0
  3 34  1  0  0  0  0
  3 35  1  0  0  0  0
  3 59  1  0  0  0  0
  4  5  1  0  0  0  0
  4 36  1  0  0  0  0
  4 37  1  0  0  0  0
  4 59  1  0  0  0  0
  5 38  1  0  0  0  0
  5 39  1  0  0  0  0
  5 57  1  0  0  0  0
  6  7  1  0  0  0  0
  6 40  1  0  0  0  0
  6 41  1  0  0  0  0
  6 59  1  0  0  0  0
  7  8  1  0  0  0  0
  7 42  1  0  0  0  0
  7 43  1  0  0  0  0
  8  9  1  0  0  0  0
  8 44  1  0  0  0  0
  8 45  1  0  0  0  0
  9 13  1  0  0  0  0
  9 10  1  0  0  0  0
 10 11  2  0  0  0  0
 10 46  1  0  0  0  0
 11 12  1  0  0  0  0
 11 18  1  0  0  0  0
 12 17  2  0  0  0  0
 12 13  1  0  0  0  0
 13 14  2  0  0  0  0
 14 15  1  0  0  0  0
 14 47  1  0  0  0  0
 15 16  2  0  0  0  0
 15 48  1  0  0  0  0
 16 17  1  0  0  0  0
 16 49  1  0  0  0  0
 17 50  1  0  0  0  0
 18 23  2  0  0  0  0
 18 19  1  0  0  0  0
 19 20  2  0  0  0  0
 19 51  1  0  0  0  0
 20 21  1  0  0  0  0
 20 24  1  0  0  0  0
 21 22  2  0  0  0  0
 21 52  1  0  0  0  0
 22 23  1  0  0  0  0
 23 53  1  0  0  0  0
 24 28  2  0  0  0  0
 24 25  1  0  0  0  0
 25 26  2  0  0  0  0
 25 54  1  0  0  0  0
 26 27  1  0  0  0  0
 26 55  1  0  0  0  0
 27 28  1  0  0  0  0
 28 56  1  0  0  0  0
 57 58  1  0  0  0  0
 59 60  1  0  0  0  0
M  CHG  2  57   1  59   1
M  END
$$$$
