ZINC03832408
  -OEChem-08230709403D

 40 42  0     0  0  0  0  0  0999 V2000
    4.4650    2.3257   -1.2729 C   0  0  0  0  0  0  0  0  0  0  0  0
    3.7891    3.4372   -2.0337 C   0  0  0  0  0  0  0  0  0  0  0  0
    4.1676    3.7470   -3.3306 C   0  0  0  0  0  0  0  0  0  0  0  0
    3.5027    4.7910   -3.9728 C   0  0  0  0  0  0  0  0  0  0  0  0
    2.5398    5.4445   -3.3387 N   0  0  0  0  0  0  0  0  0  0  0  0
    2.1912    5.1488   -2.1393 N   0  0  0  0  0  0  0  0  0  0  0  0
    2.7659    4.1773   -1.4583 C   0  0  0  0  0  0  0  0  0  0  0  0
    2.3159    3.8745   -0.0523 C   0  0  0  0  0  0  0  0  0  0  0  0
    1.2082    2.8533   -0.0883 C   0  0  0  0  0  0  0  0  0  0  0  0
    1.4914    1.4970   -0.0362 C   0  0  0  0  0  0  0  0  0  0  0  0
    0.4495    0.5897   -0.0719 C   0  0  0  0  0  0  0  0  0  0  0  0
   -0.8004    1.0009   -0.1596 N   0  0  0  0  0  0  0  0  0  0  0  0
   -1.1070    2.2826   -0.2060 C   0  0  0  0  0  0  0  0  0  0  0  0
   -0.1182    3.2477   -0.1748 C   0  0  0  0  0  0  0  0  0  0  0  0
    3.8483    5.1446   -5.2733 N   0  0  0  0  0  0  0  0  0  0  0  0
    3.2647    6.2655   -5.8714 C   0  0  0  0  0  0  0  0  0  0  0  0
    2.9647    6.2535   -7.2276 C   0  0  0  0  0  0  0  0  0  0  0  0
    2.3839    7.3604   -7.8148 C   0  0  0  0  0  0  0  0  0  0  0  0
    2.1105    8.4846   -7.0556 C   0  0  0  0  0  0  0  0  0  0  0  0
    2.4131    8.5013   -5.7053 C   0  0  0  0  0  0  0  0  0  0  0  0
    2.9892    7.3953   -5.1118 C   0  0  0  0  0  0  0  0  0  0  0  0
    1.3859    9.8764   -7.7983 Cl  0  0  0  0  0  0  0  0  0  0  0  0
    5.2668    2.9830   -4.0229 C   0  0  0  0  0  0  0  0  0  0  0  0
    3.9386    1.3886   -1.4545 H   0  0  0  0  0  0  0  0  0  0  0  0
    5.4983    2.2327   -1.6071 H   0  0  0  0  0  0  0  0  0  0  0  0
    4.4469    2.5518   -0.2068 H   0  0  0  0  0  0  0  0  0  0  0  0
    1.9523    4.7884    0.4176 H   0  0  0  0  0  0  0  0  0  0  0  0
    3.1550    3.4803    0.5209 H   0  0  0  0  0  0  0  0  0  0  0  0
    2.5132    1.1539    0.0312 H   0  0  0  0  0  0  0  0  0  0  0  0
    0.6617   -0.4685   -0.0321 H   0  0  0  0  0  0  0  0  0  0  0  0
   -2.1426    2.5816   -0.2733 H   0  0  0  0  0  0  0  0  0  0  0  0
   -0.3754    4.2957   -0.2176 H   0  0  0  0  0  0  0  0  0  0  0  0
    4.4940    4.6134   -5.7650 H   0  0  0  0  0  0  0  0  0  0  0  0
    3.1820    5.3780   -7.8215 H   0  0  0  0  0  0  0  0  0  0  0  0
    2.1466    7.3501   -8.8684 H   0  0  0  0  0  0  0  0  0  0  0  0
    2.1984    9.3798   -5.1151 H   0  0  0  0  0  0  0  0  0  0  0  0
    3.2249    7.4087   -4.0579 H   0  0  0  0  0  0  0  0  0  0  0  0
    6.2244    3.4645   -3.8247 H   0  0  0  0  0  0  0  0  0  0  0  0
    5.2900    1.9598   -3.6478 H   0  0  0  0  0  0  0  0  0  0  0  0
    5.0809    2.9721   -5.0969 H   0  0  0  0  0  0  0  0  0  0  0  0
  1  2  1  0  0  0  0
  1 24  1  0  0  0  0
  1 25  1  0  0  0  0
  1 26  1  0  0  0  0
  2  7  2  0  0  0  0
  2  3  1  0  0  0  0
  3  4  2  0  0  0  0
  3 23  1  0  0  0  0
  4  5  1  0  0  0  0
  4 15  1  0  0  0  0
  5  6  2  0  0  0  0
  6  7  1  0  0  0  0
  7  8  1  0  0  0  0
  8  9  1  0  0  0  0
  8 27  1  0  0  0  0
  8 28  1  0  0  0  0
  9 14  2  0  0  0  0
  9 10  1  0  0  0  0
 10 11  2  0  0  0  0
 10 29  1  0  0  0  0
 11 12  1  0  0  0  0
 11 30  1  0  0  0  0
 12 13  2  0  0  0  0
 13 14  1  0  0  0  0
 13 31  1  0  0  0  0
 14 32  1  0  0  0  0
 15 16  1  0  0  0  0
 15 33  1  0  0  0  0
 16 21  2  0  0  0  0
 16 17  1  0  0  0  0
 17 18  2  0  0  0  0
 17 34  1  0  0  0  0
 18 19  1  0  0  0  0
 18 35  1  0  0  0  0
 19 20  2  0  0  0  0
 19 22  1  0  0  0  0
 20 21  1  0  0  0  0
 20 36  1  0  0  0  0
 21 37  1  0  0  0  0
 23 38  1  0  0  0  0
 23 39  1  0  0  0  0
 23 40  1  0  0  0  0
M  END
$$$$
