ZINC00008576
  -OEChem-08230709403D

 30 33  0     0  0  0  0  0  0999 V2000
    3.2306   -1.2283    2.8333 C   0  0  0  0  0  0  0  0  0  0  0  0
    2.2072   -2.1057    2.5174 C   0  0  0  0  0  0  0  0  0  0  0  0
    1.2727   -1.7733    1.5559 C   0  0  0  0  0  0  0  0  0  0  0  0
    1.3540   -0.5520    0.9012 C   0  0  0  0  0  0  0  0  0  0  0  0
    2.3853    0.3411    1.2259 C   0  0  0  0  0  0  0  0  0  0  0  0
    3.3246   -0.0089    2.1935 C   0  0  0  0  0  0  0  0  0  0  0  0
    2.4652    1.6495    0.5455 C   0  0  0  0  0  0  0  0  0  0  0  0
    1.4247    2.2572   -0.1016 C   0  0  0  0  0  0  0  0  0  0  0  0
    1.8882    3.4766   -0.6109 C   0  0  0  0  0  0  0  0  0  0  0  0
    3.1606    3.6011   -0.2873 N   0  0  0  0  0  0  0  0  0  0  0  0
    3.5474    2.4661    0.4393 N   0  0  0  0  0  0  0  0  0  0  0  0
    4.4577    2.2885    0.8132 H   0  0  0  0  0  0  0  0  0  0  0  0
    1.0862    4.4591   -1.3812 C   0  0  0  0  0  0  0  0  0  0  0  0
    1.6282    5.1179   -2.4882 C   0  0  0  0  0  0  0  0  0  0  0  0
    0.8461    6.0201   -3.1793 C   0  0  0  0  0  0  0  0  0  0  0  0
   -0.3928    6.2711   -2.8013 N   0  0  0  0  0  0  0  0  0  0  0  0
   -0.9403    5.6748   -1.7595 C   0  0  0  0  0  0  0  0  0  0  0  0
   -0.2300    4.7551   -1.0159 C   0  0  0  0  0  0  0  0  0  0  0  0
    0.0378    1.6779   -0.2216 C   0  0  0  0  0  0  0  0  0  0  0  0
    0.1675   -0.1302   -0.3311 S   0  0  0  0  0  0  0  0  0  0  0  0
    3.9585   -1.4991    3.5838 H   0  0  0  0  0  0  0  0  0  0  0  0
    2.1390   -3.0560    3.0260 H   0  0  0  0  0  0  0  0  0  0  0  0
    0.4784   -2.4638    1.3138 H   0  0  0  0  0  0  0  0  0  0  0  0
    4.1248    0.6724    2.4422 H   0  0  0  0  0  0  0  0  0  0  0  0
    2.6432    4.9208   -2.8002 H   0  0  0  0  0  0  0  0  0  0  0  0
    1.2550    6.5313   -4.0383 H   0  0  0  0  0  0  0  0  0  0  0  0
   -1.9580    5.9101   -1.4850 H   0  0  0  0  0  0  0  0  0  0  0  0
   -0.6845    4.2708   -0.1642 H   0  0  0  0  0  0  0  0  0  0  0  0
   -0.4433    2.0649   -1.1199 H   0  0  0  0  0  0  0  0  0  0  0  0
   -0.5490    1.9498    0.6558 H   0  0  0  0  0  0  0  0  0  0  0  0
  1  6  2  0  0  0  0
  1  2  1  0  0  0  0
  1 21  1  0  0  0  0
  2  3  2  0  0  0  0
  2 22  1  0  0  0  0
  3  4  1  0  0  0  0
  3 23  1  0  0  0  0
  4 20  1  0  0  0  0
  4  5  2  0  0  0  0
  5  6  1  0  0  0  0
  5  7  1  0  0  0  0
  6 24  1  0  0  0  0
  7 11  1  0  0  0  0
  7  8  2  0  0  0  0
  8  9  1  0  0  0  0
  8 19  1  0  0  0  0
  9 10  2  0  0  0  0
  9 13  1  0  0  0  0
 10 11  1  0  0  0  0
 11 12  1  0  0  0  0
 13 18  2  0  0  0  0
 13 14  1  0  0  0  0
 14 15  2  0  0  0  0
 14 25  1  0  0  0  0
 15 16  1  0  0  0  0
 15 26  1  0  0  0  0
 16 17  2  0  0  0  0
 17 18  1  0  0  0  0
 17 27  1  0  0  0  0
 18 28  1  0  0  0  0
 19 20  1  0  0  0  0
 19 29  1  0  0  0  0
 19 30  1  0  0  0  0
M  END
$$$$
