ZINC03815548
  -OEChem-08230709403D

 38 40  0     0  0  0  0  0  0999 V2000
   -3.6392   -2.1996    0.0235 C   0  0  0  0  0  0  0  0  0  0  0  0
   -3.0388   -1.8501    1.2196 C   0  0  0  0  0  0  0  0  0  0  0  0
   -1.8559   -1.1371    1.2197 C   0  0  0  0  0  0  0  0  0  0  0  0
   -1.2668   -0.7689    0.0095 C   0  0  0  0  0  0  0  0  0  0  0  0
   -1.8809   -1.1192   -1.1935 C   0  0  0  0  0  0  0  0  0  0  0  0
   -3.0607   -1.8372   -1.1796 C   0  0  0  0  0  0  0  0  0  0  0  0
   -1.1599   -0.6597   -2.7044 Cl  0  0  0  0  0  0  0  0  0  0  0  0
    0.0021   -0.0041    0.0020 C   0  0  0  0  0  0  0  0  0  0  0  0
    1.2038   -0.6598   -0.0129 C   0  0  0  0  0  0  0  0  0  0  0  0
    2.3976    0.0973   -0.0202 C   0  0  0  0  0  0  0  0  0  0  0  0
    3.6543   -0.5268   -0.0350 C   0  0  0  0  0  0  0  0  0  0  0  0
    4.7354    0.2300   -0.0404 N   0  0  0  0  0  0  0  0  0  0  0  0
    4.6469    1.5558   -0.0329 C   0  0  0  0  0  0  0  0  0  0  0  0
    3.4846    2.1894   -0.0189 N   0  0  0  0  0  0  0  0  0  0  0  0
    2.3442    1.5076   -0.0122 C   0  0  0  0  0  0  0  0  0  0  0  0
    1.1354    2.1562    0.0028 N   0  0  0  0  0  0  0  0  0  0  0  0
   -0.0178    1.4603    0.0101 C   0  0  0  0  0  0  0  0  0  0  0  0
   -1.0826    2.0519    0.0183 O   0  0  0  0  0  0  0  0  0  0  0  0
    1.0984    3.6207    0.0105 C   0  0  0  0  0  0  0  0  0  0  0  0
    1.0990    4.1233    1.4556 C   0  0  0  0  0  0  0  0  0  0  0  0
    1.0604    5.6528    1.4636 C   0  0  0  0  0  0  0  0  0  0  0  0
    1.0610    6.1223    2.8133 O   0  0  0  0  0  0  0  0  0  0  0  0
    5.8098    2.2999   -0.0395 N   0  0  0  0  0  0  0  0  0  0  0  0
   -1.1040   -0.6995    2.7219 Cl  0  0  0  0  0  0  0  0  0  0  0  0
   -4.5640   -2.7574    0.0289 H   0  0  0  0  0  0  0  0  0  0  0  0
   -3.4958   -2.1357    2.1556 H   0  0  0  0  0  0  0  0  0  0  0  0
   -3.5347   -2.1129   -2.1101 H   0  0  0  0  0  0  0  0  0  0  0  0
    1.2392   -1.7392   -0.0187 H   0  0  0  0  0  0  0  0  0  0  0  0
    3.7350   -1.6038   -0.0412 H   0  0  0  0  0  0  0  0  0  0  0  0
    1.9741    4.0090   -0.5096 H   0  0  0  0  0  0  0  0  0  0  0  0
    0.1948    3.9640   -0.4932 H   0  0  0  0  0  0  0  0  0  0  0  0
    0.2233    3.7351    1.9756 H   0  0  0  0  0  0  0  0  0  0  0  0
    2.0026    3.7801    1.9593 H   0  0  0  0  0  0  0  0  0  0  0  0
    1.9361    6.0411    0.9435 H   0  0  0  0  0  0  0  0  0  0  0  0
    0.1568    5.9961    0.9599 H   0  0  0  0  0  0  0  0  0  0  0  0
    1.0373    7.0856    2.8947 H   0  0  0  0  0  0  0  0  0  0  0  0
    5.7656    3.2689   -0.0339 H   0  0  0  0  0  0  0  0  0  0  0  0
    6.6710    1.8537   -0.0498 H   0  0  0  0  0  0  0  0  0  0  0  0
  1  6  2  0  0  0  0
  1  2  1  0  0  0  0
  1 25  1  0  0  0  0
  2  3  2  0  0  0  0
  2 26  1  0  0  0  0
  3  4  1  0  0  0  0
  3 24  1  0  0  0  0
  4  5  2  0  0  0  0
  4  8  1  0  0  0  0
  5  6  1  0  0  0  0
  5  7  1  0  0  0  0
  6 27  1  0  0  0  0
  8 17  1  0  0  0  0
  8  9  2  0  0  0  0
  9 10  1  0  0  0  0
  9 28  1  0  0  0  0
 10 15  2  0  0  0  0
 10 11  1  0  0  0  0
 11 12  2  0  0  0  0
 11 29  1  0  0  0  0
 12 13  1  0  0  0  0
 13 14  2  0  0  0  0
 13 23  1  0  0  0  0
 14 15  1  0  0  0  0
 15 16  1  0  0  0  0
 16 17  1  0  0  0  0
 16 19  1  0  0  0  0
 17 18  2  0  0  0  0
 19 20  1  0  0  0  0
 19 30  1  0  0  0  0
 19 31  1  0  0  0  0
 20 21  1  0  0  0  0
 20 32  1  0  0  0  0
 20 33  1  0  0  0  0
 21 22  1  0  0  0  0
 21 34  1  0  0  0  0
 21 35  1  0  0  0  0
 22 36  1  0  0  0  0
 23 37  1  0  0  0  0
 23 38  1  0  0  0  0
M  END
$$$$
