ZINC03815554
  -OEChem-08230709403D

 37 39  0     0  0  0  0  0  0999 V2000
    1.0604    5.6524    1.4649 C   0  0  0  0  0  0  0  0  0  0  0  0
    1.0991    4.1229    1.4563 C   0  0  0  0  0  0  0  0  0  0  0  0
    1.0982    3.6208    0.0110 C   0  0  0  0  0  0  0  0  0  0  0  0
    1.1353    2.1563    0.0028 N   0  0  0  0  0  0  0  0  0  0  0  0
    2.3442    1.5078   -0.0123 C   0  0  0  0  0  0  0  0  0  0  0  0
    2.3976    0.0971   -0.0204 C   0  0  0  0  0  0  0  0  0  0  0  0
    1.2037   -0.6599   -0.0130 C   0  0  0  0  0  0  0  0  0  0  0  0
    0.0021   -0.0041    0.0020 C   0  0  0  0  0  0  0  0  0  0  0  0
   -0.0178    1.4603    0.0101 C   0  0  0  0  0  0  0  0  0  0  0  0
   -1.0826    2.0518    0.0183 O   0  0  0  0  0  0  0  0  0  0  0  0
   -1.2669   -0.7688    0.0096 C   0  0  0  0  0  0  0  0  0  0  0  0
   -1.8811   -1.1191   -1.1934 C   0  0  0  0  0  0  0  0  0  0  0  0
   -3.0611   -1.8367   -1.1795 C   0  0  0  0  0  0  0  0  0  0  0  0
   -3.6396   -2.1990    0.0237 C   0  0  0  0  0  0  0  0  0  0  0  0
   -3.0388   -1.8500    1.2198 C   0  0  0  0  0  0  0  0  0  0  0  0
   -1.8559   -1.1370    1.2198 C   0  0  0  0  0  0  0  0  0  0  0  0
   -1.1039   -0.6995    2.7220 Cl  0  0  0  0  0  0  0  0  0  0  0  0
   -1.1601   -0.6597   -2.7043 Cl  0  0  0  0  0  0  0  0  0  0  0  0
    3.6539   -0.5268   -0.0352 C   0  0  0  0  0  0  0  0  0  0  0  0
    4.7353    0.2302   -0.0411 N   0  0  0  0  0  0  0  0  0  0  0  0
    4.6469    1.5556   -0.0332 C   0  0  0  0  0  0  0  0  0  0  0  0
    3.4843    2.1894   -0.0191 N   0  0  0  0  0  0  0  0  0  0  0  0
    5.8098    2.2997   -0.0394 N   0  0  0  0  0  0  0  0  0  0  0  0
    1.0610    6.0101    2.4946 H   0  0  0  0  0  0  0  0  0  0  0  0
    1.9360    6.0409    0.9448 H   0  0  0  0  0  0  0  0  0  0  0  0
    0.1566    5.9958    0.9615 H   0  0  0  0  0  0  0  0  0  0  0  0
    0.2236    3.7344    1.9765 H   0  0  0  0  0  0  0  0  0  0  0  0
    2.0029    3.7795    1.9597 H   0  0  0  0  0  0  0  0  0  0  0  0
    1.9738    4.0094   -0.5091 H   0  0  0  0  0  0  0  0  0  0  0  0
    0.1945    3.9643   -0.4923 H   0  0  0  0  0  0  0  0  0  0  0  0
    1.2390   -1.7393   -0.0188 H   0  0  0  0  0  0  0  0  0  0  0  0
   -3.5352   -2.1123   -2.1099 H   0  0  0  0  0  0  0  0  0  0  0  0
   -4.5645   -2.7565    0.0292 H   0  0  0  0  0  0  0  0  0  0  0  0
   -3.4956   -2.1359    2.1558 H   0  0  0  0  0  0  0  0  0  0  0  0
    3.7347   -1.6038   -0.0414 H   0  0  0  0  0  0  0  0  0  0  0  0
    5.7657    3.2687   -0.0334 H   0  0  0  0  0  0  0  0  0  0  0  0
    6.6710    1.8535   -0.0497 H   0  0  0  0  0  0  0  0  0  0  0  0
  1  2  1  0  0  0  0
  1 24  1  0  0  0  0
  1 25  1  0  0  0  0
  1 26  1  0  0  0  0
  2  3  1  0  0  0  0
  2 27  1  0  0  0  0
  2 28  1  0  0  0  0
  3  4  1  0  0  0  0
  3 29  1  0  0  0  0
  3 30  1  0  0  0  0
  4  9  1  0  0  0  0
  4  5  1  0  0  0  0
  5 22  2  0  0  0  0
  5  6  1  0  0  0  0
  6  7  1  0  0  0  0
  6 19  2  0  0  0  0
  7  8  2  0  0  0  0
  7 31  1  0  0  0  0
  8  9  1  0  0  0  0
  8 11  1  0  0  0  0
  9 10  2  0  0  0  0
 11 16  2  0  0  0  0
 11 12  1  0  0  0  0
 12 13  2  0  0  0  0
 12 18  1  0  0  0  0
 13 14  1  0  0  0  0
 13 32  1  0  0  0  0
 14 15  2  0  0  0  0
 14 33  1  0  0  0  0
 15 16  1  0  0  0  0
 15 34  1  0  0  0  0
 16 17  1  0  0  0  0
 19 20  1  0  0  0  0
 19 35  1  0  0  0  0
 20 21  2  0  0  0  0
 21 22  1  0  0  0  0
 21 23  1  0  0  0  0
 23 36  1  0  0  0  0
 23 37  1  0  0  0  0
M  END
$$$$
