ZINC03815525
  -OEChem-08230709403D

 64 67  0     0  0  0  0  0  0999 V2000
    0.0021   -0.0041    0.0020 C   0  0  0  0  0  0  0  0  0  0  0  0
   -0.0178    1.4608    0.0101 N   0  0  0  0  0  0  0  0  0  0  0  0
   -1.2216    2.1269    0.0194 C   0  0  0  0  0  0  0  0  0  0  0  0
   -2.4255    1.4324    0.0320 C   0  0  0  0  0  0  0  0  0  0  0  0
   -3.6131    2.1500    0.0463 C   0  0  0  0  0  0  0  0  0  0  0  0
   -2.5054    4.1825    0.0466 C   0  0  0  0  0  0  0  0  0  0  0  0
   -1.2621    3.5384    0.0322 C   0  0  0  0  0  0  0  0  0  0  0  0
   -0.0566    4.2794    0.0247 C   0  0  0  0  0  0  0  0  0  0  0  0
    1.1365    3.6096    0.0101 C   0  0  0  0  0  0  0  0  0  0  0  0
    1.1430    2.1450    0.0027 C   0  0  0  0  0  0  0  0  0  0  0  0
    2.2020    1.5430   -0.0099 O   0  0  0  0  0  0  0  0  0  0  0  0
    2.4133    4.3610    0.0015 C   0  0  0  0  0  0  0  0  0  0  0  0
    3.0084    4.7175   -1.2093 C   0  0  0  0  0  0  0  0  0  0  0  0
    4.1956    5.4234   -1.2103 C   0  0  0  0  0  0  0  0  0  0  0  0
    4.8007    5.7666   -0.0147 C   0  0  0  0  0  0  0  0  0  0  0  0
    4.2192    5.4109    1.1890 C   0  0  0  0  0  0  0  0  0  0  0  0
    3.0290    4.7103    1.2040 C   0  0  0  0  0  0  0  0  0  0  0  0
    2.3008    4.2649    2.7157 Cl  0  0  0  0  0  0  0  0  0  0  0  0
    2.2543    4.2815   -2.7109 Cl  0  0  0  0  0  0  0  0  0  0  0  0
   -4.8205    1.4669    0.0541 N   0  0  0  0  0  0  0  0  0  0  0  0
   -4.8333    0.0019    0.0468 C   0  0  0  0  0  0  0  0  0  0  0  0
   -6.2801   -0.4955    0.0578 C   0  0  0  0  0  0  0  0  0  0  0  0
   -6.2935   -2.0254    0.0502 C   0  0  0  0  0  0  0  0  0  0  0  0
   -7.7403   -2.5229    0.0612 C   0  0  0  0  0  0  0  0  0  0  0  0
   -7.2158   -4.5169   -1.2092 C   0  0  0  0  0  0  0  0  0  0  0  0
   -7.1723   -6.0455   -1.1456 C   0  0  0  0  0  0  0  0  0  0  0  0
   -9.0630   -6.0365    0.3657 C   0  0  0  0  0  0  0  0  0  0  0  0
   -9.1065   -4.5079    0.3022 C   0  0  0  0  0  0  0  0  0  0  0  0
   -8.5385   -8.0305   -0.9047 C   0  0  0  0  0  0  0  0  0  0  0  0
    1.0345   -0.3534   -0.0097 H   0  0  0  0  0  0  0  0  0  0  0  0
   -0.4983   -0.3791    0.8948 H   0  0  0  0  0  0  0  0  0  0  0  0
   -0.5153   -0.3696   -0.8850 H   0  0  0  0  0  0  0  0  0  0  0  0
   -2.4366    0.3525    0.0263 H   0  0  0  0  0  0  0  0  0  0  0  0
   -2.5521    5.2614    0.0521 H   0  0  0  0  0  0  0  0  0  0  0  0
   -0.0780    5.3592    0.0300 H   0  0  0  0  0  0  0  0  0  0  0  0
    4.6545    5.7045   -2.1467 H   0  0  0  0  0  0  0  0  0  0  0  0
    5.7314    6.3144   -0.0210 H   0  0  0  0  0  0  0  0  0  0  0  0
    4.6967    5.6818    2.1190 H   0  0  0  0  0  0  0  0  0  0  0  0
   -5.6562    1.9591    0.0644 H   0  0  0  0  0  0  0  0  0  0  0  0
   -4.3310   -0.3613   -0.8498 H   0  0  0  0  0  0  0  0  0  0  0  0
   -4.3143   -0.3703    0.9301 H   0  0  0  0  0  0  0  0  0  0  0  0
   -6.7824   -0.1322    0.9544 H   0  0  0  0  0  0  0  0  0  0  0  0
   -6.7990   -0.1232   -0.8255 H   0  0  0  0  0  0  0  0  0  0  0  0
   -5.7912   -2.3887   -0.8464 H   0  0  0  0  0  0  0  0  0  0  0  0
   -5.7745   -2.3977    0.9335 H   0  0  0  0  0  0  0  0  0  0  0  0
   -8.2426   -2.1596    0.9578 H   0  0  0  0  0  0  0  0  0  0  0  0
   -8.2592   -2.1506   -0.8221 H   0  0  0  0  0  0  0  0  0  0  0  0
   -7.8563   -4.2053   -2.0342 H   0  0  0  0  0  0  0  0  0  0  0  0
   -6.2085   -4.1305   -1.3644 H   0  0  0  0  0  0  0  0  0  0  0  0
   -6.5104   -6.3572   -0.3377 H   0  0  0  0  0  0  0  0  0  0  0  0
   -6.8013   -6.4383   -2.0923 H   0  0  0  0  0  0  0  0  0  0  0  0
   -8.4225   -6.3481    1.1908 H   0  0  0  0  0  0  0  0  0  0  0  0
  -10.0703   -6.4228    0.5213 H   0  0  0  0  0  0  0  0  0  0  0  0
   -9.4775   -4.1150    1.2488 H   0  0  0  0  0  0  0  0  0  0  0  0
   -9.7684   -4.1962   -0.5057 H   0  0  0  0  0  0  0  0  0  0  0  0
   -9.5622   -8.3855   -0.7859 H   0  0  0  0  0  0  0  0  0  0  0  0
   -8.1358   -8.3926   -1.8506 H   0  0  0  0  0  0  0  0  0  0  0  0
   -7.9270   -8.4033   -0.0829 H   0  0  0  0  0  0  0  0  0  0  0  0
   -3.6891    3.5189    0.0539 N   0  3  0  0  0  0  0  0  0  0  0  0
   -4.5890    4.0130    0.0644 H   0  0  0  0  0  0  0  0  0  0  0  0
   -7.7368   -4.0013    0.0745 N   0  3  0  0  0  0  0  0  0  0  0  0
   -7.1298   -4.3267    0.8360 H   0  0  0  0  0  0  0  0  0  0  0  0
   -8.5422   -6.5520   -0.9178 N   0  3  0  0  0  0  0  0  0  0  0  0
   -9.1493   -6.2267   -1.6792 H   0  0  0  0  0  0  0  0  0  0  0  0
  1  2  1  0  0  0  0
  1 30  1  0  0  0  0
  1 31  1  0  0  0  0
  1 32  1  0  0  0  0
  2 10  1  0  0  0  0
  2  3  1  0  0  0  0
  3  7  2  0  0  0  0
  3  4  1  0  0  0  0
  4  5  2  0  0  0  0
  4 33  1  0  0  0  0
  5 20  1  0  0  0  0
  5 59  1  0  0  0  0
  6  7  1  0  0  0  0
  6 34  1  0  0  0  0
  6 59  2  0  0  0  0
  7  8  1  0  0  0  0
  8  9  2  0  0  0  0
  8 35  1  0  0  0  0
  9 10  1  0  0  0  0
  9 12  1  0  0  0  0
 10 11  2  0  0  0  0
 12 17  2  0  0  0  0
 12 13  1  0  0  0  0
 13 14  2  0  0  0  0
 13 19  1  0  0  0  0
 14 15  1  0  0  0  0
 14 36  1  0  0  0  0
 15 16  2  0  0  0  0
 15 37  1  0  0  0  0
 16 17  1  0  0  0  0
 16 38  1  0  0  0  0
 17 18  1  0  0  0  0
 20 21  1  0  0  0  0
 20 39  1  0  0  0  0
 21 22  1  0  0  0  0
 21 40  1  0  0  0  0
 21 41  1  0  0  0  0
 22 23  1  0  0  0  0
 22 42  1  0  0  0  0
 22 43  1  0  0  0  0
 23 24  1  0  0  0  0
 23 44  1  0  0  0  0
 23 45  1  0  0  0  0
 24 46  1  0  0  0  0
 24 47  1  0  0  0  0
 24 61  1  0  0  0  0
 25 26  1  0  0  0  0
 25 48  1  0  0  0  0
 25 49  1  0  0  0  0
 25 61  1  0  0  0  0
 26 50  1  0  0  0  0
 26 51  1  0  0  0  0
 26 63  1  0  0  0  0
 27 28  1  0  0  0  0
 27 52  1  0  0  0  0
 27 53  1  0  0  0  0
 27 63  1  0  0  0  0
 28 54  1  0  0  0  0
 28 55  1  0  0  0  0
 28 61  1  0  0  0  0
 29 56  1  0  0  0  0
 29 57  1  0  0  0  0
 29 58  1  0  0  0  0
 29 63  1  0  0  0  0
 59 60  1  0  0  0  0
 61 62  1  0  0  0  0
 63 64  1  0  0  0  0
M  CHG  3  59   1  61   1  63   1
M  END
$$$$
