ZINC03832343
  -OEChem-08230709403D

 49 52  0     0  0  0  0  0  0999 V2000
   -8.2079    4.0861    7.6777 C   0  0  0  0  0  0  0  0  0  0  0  0
   -7.8947    4.5808    6.4244 C   0  0  0  0  0  0  0  0  0  0  0  0
   -6.6361    4.3802    5.8952 C   0  0  0  0  0  0  0  0  0  0  0  0
   -5.6794    3.6774    6.6264 C   0  0  0  0  0  0  0  0  0  0  0  0
   -6.0026    3.1766    7.8868 C   0  0  0  0  0  0  0  0  0  0  0  0
   -7.2628    3.3880    8.4079 C   0  0  0  0  0  0  0  0  0  0  0  0
   -4.3259    3.4581    6.0634 C   0  0  0  0  0  0  0  0  0  0  0  0
   -4.0286    2.9797    4.8299 C   0  0  0  0  0  0  0  0  0  0  0  0
   -2.6691    2.9161    4.6765 N   0  0  0  0  0  0  0  0  0  0  0  0
   -2.0425    3.3640    5.8110 C   0  0  0  0  0  0  0  0  0  0  0  0
   -3.0440    3.7232    6.7297 C   0  0  0  0  0  0  0  0  0  0  0  0
   -2.6620    4.2176    7.9837 C   0  0  0  0  0  0  0  0  0  0  0  0
   -1.3633    4.3258    8.2511 N   0  0  0  0  0  0  0  0  0  0  0  0
   -0.4541    3.9769    7.3592 C   0  0  0  0  0  0  0  0  0  0  0  0
   -0.7681    3.5084    6.1706 N   0  0  0  0  0  0  0  0  0  0  0  0
   -3.6117    4.5842    8.9205 N   0  0  0  0  0  0  0  0  0  0  0  0
   -2.0131    2.4641    3.5243 C   0  0  0  0  0  0  0  0  0  0  0  0
   -2.3679    1.2492    2.9531 C   0  0  0  0  0  0  0  0  0  0  0  0
   -1.7196    0.8065    1.8167 C   0  0  0  0  0  0  0  0  0  0  0  0
   -0.7181    1.5718    1.2479 C   0  0  0  0  0  0  0  0  0  0  0  0
   -0.3586    2.7795    1.8176 C   0  0  0  0  0  0  0  0  0  0  0  0
   -1.0071    3.2303    2.9507 C   0  0  0  0  0  0  0  0  0  0  0  0
   -0.0127    1.0858    0.0080 C   0  0  0  0  0  0  0  0  0  0  0  0
   -0.0624    1.1171   -2.4126 C   0  0  0  0  0  0  0  0  0  0  0  0
   -0.8294    1.6425   -3.6277 C   0  0  0  0  0  0  0  0  0  0  0  0
   -0.7494    3.0689   -3.6613 O   0  0  0  0  0  0  0  0  0  0  0  0
   -9.1941    4.2458    8.0880 H   0  0  0  0  0  0  0  0  0  0  0  0
   -8.6365    5.1254    5.8591 H   0  0  0  0  0  0  0  0  0  0  0  0
   -6.3925    4.7672    4.9168 H   0  0  0  0  0  0  0  0  0  0  0  0
   -5.2669    2.6276    8.4559 H   0  0  0  0  0  0  0  0  0  0  0  0
   -7.5131    3.0038    9.3857 H   0  0  0  0  0  0  0  0  0  0  0  0
   -4.7534    2.6904    4.0833 H   0  0  0  0  0  0  0  0  0  0  0  0
    0.5898    4.0800    7.6161 H   0  0  0  0  0  0  0  0  0  0  0  0
   -3.3338    4.9251    9.7851 H   0  0  0  0  0  0  0  0  0  0  0  0
   -4.5555    4.5003    8.7128 H   0  0  0  0  0  0  0  0  0  0  0  0
   -3.1502    0.6512    3.3967 H   0  0  0  0  0  0  0  0  0  0  0  0
   -1.9953   -0.1381    1.3718 H   0  0  0  0  0  0  0  0  0  0  0  0
    0.4269    3.3728    1.3736 H   0  0  0  0  0  0  0  0  0  0  0  0
   -0.7287    4.1755    3.3929 H   0  0  0  0  0  0  0  0  0  0  0  0
    0.0021   -0.0041    0.0020 H   0  0  0  0  0  0  0  0  0  0  0  0
    1.0099    1.4631    0.0003 H   0  0  0  0  0  0  0  0  0  0  0  0
    0.9598    1.4946   -2.4371 H   0  0  0  0  0  0  0  0  0  0  0  0
   -0.0480    0.0274   -2.4353 H   0  0  0  0  0  0  0  0  0  0  0  0
   -0.3924    1.2326   -4.5383 H   0  0  0  0  0  0  0  0  0  0  0  0
   -1.8739    1.3387   -3.5573 H   0  0  0  0  0  0  0  0  0  0  0  0
   -1.2146    3.4715   -4.4073 H   0  0  0  0  0  0  0  0  0  0  0  0
   -0.7320    1.5785   -1.1818 N   0  3  0  0  0  0  0  0  0  0  0  0
   -0.7459    2.6050   -1.1683 H   0  0  0  0  0  0  0  0  0  0  0  0
   -1.6952    1.2229   -1.1667 H   0  0  0  0  0  0  0  0  0  0  0  0
  1  6  2  0  0  0  0
  1  2  1  0  0  0  0
  1 27  1  0  0  0  0
  2  3  2  0  0  0  0
  2 28  1  0  0  0  0
  3  4  1  0  0  0  0
  3 29  1  0  0  0  0
  4  5  2  0  0  0  0
  4  7  1  0  0  0  0
  5  6  1  0  0  0  0
  5 30  1  0  0  0  0
  6 31  1  0  0  0  0
  7 11  1  0  0  0  0
  7  8  2  0  0  0  0
  8  9  1  0  0  0  0
  8 32  1  0  0  0  0
  9 10  1  0  0  0  0
  9 17  1  0  0  0  0
 10 15  2  0  0  0  0
 10 11  1  0  0  0  0
 11 12  2  0  0  0  0
 12 13  1  0  0  0  0
 12 16  1  0  0  0  0
 13 14  2  0  0  0  0
 14 15  1  0  0  0  0
 14 33  1  0  0  0  0
 16 34  1  0  0  0  0
 16 35  1  0  0  0  0
 17 22  2  0  0  0  0
 17 18  1  0  0  0  0
 18 19  2  0  0  0  0
 18 36  1  0  0  0  0
 19 20  1  0  0  0  0
 19 37  1  0  0  0  0
 20 21  2  0  0  0  0
 20 23  1  0  0  0  0
 21 22  1  0  0  0  0
 21 38  1  0  0  0  0
 22 39  1  0  0  0  0
 23 40  1  0  0  0  0
 23 41  1  0  0  0  0
 23 47  1  0  0  0  0
 24 25  1  0  0  0  0
 24 42  1  0  0  0  0
 24 43  1  0  0  0  0
 24 47  1  0  0  0  0
 25 26  1  0  0  0  0
 25 44  1  0  0  0  0
 25 45  1  0  0  0  0
 26 46  1  0  0  0  0
 47 48  1  0  0  0  0
 47 49  1  0  0  0  0
M  CHG  1  47   1
M  END
$$$$
