ZINC03815535
  -OEChem-08230709403D

 65 68  0     0  0  0  0  0  0999 V2000
   -2.2664    2.6406    5.7207 C   0  0  0  0  0  0  0  0  0  0  0  0
   -1.0652    1.8152    5.8687 N   0  0  0  0  0  0  0  0  0  0  0  0
   -0.4094    1.3640    4.7512 C   0  0  0  0  0  0  0  0  0  0  0  0
    0.7497    0.5679    4.8763 C   0  0  0  0  0  0  0  0  0  0  0  0
    1.2453    0.2291    6.1562 C   0  0  0  0  0  0  0  0  0  0  0  0
    0.5843    0.6839    7.2655 C   0  0  0  0  0  0  0  0  0  0  0  0
   -0.6156    1.5073    7.1005 C   0  0  0  0  0  0  0  0  0  0  0  0
   -1.2098    1.9161    8.0821 O   0  0  0  0  0  0  0  0  0  0  0  0
    1.0781    0.3458    8.6209 C   0  0  0  0  0  0  0  0  0  0  0  0
    0.6245   -0.8061    9.2648 C   0  0  0  0  0  0  0  0  0  0  0  0
    1.0925   -1.1181   10.5262 C   0  0  0  0  0  0  0  0  0  0  0  0
    2.0012   -0.2863   11.1554 C   0  0  0  0  0  0  0  0  0  0  0  0
    2.4509    0.8598   10.5247 C   0  0  0  0  0  0  0  0  0  0  0  0
    1.9945    1.1808    9.2613 C   0  0  0  0  0  0  0  0  0  0  0  0
    2.5591    2.6202    8.4720 Cl  0  0  0  0  0  0  0  0  0  0  0  0
   -0.5209   -1.8478    8.4796 Cl  0  0  0  0  0  0  0  0  0  0  0  0
    1.3899    0.1267    3.7087 C   0  0  0  0  0  0  0  0  0  0  0  0
    0.8797    0.4693    2.5405 N   0  0  0  0  0  0  0  0  0  0  0  0
   -0.2103    1.2245    2.4609 C   0  0  0  0  0  0  0  0  0  0  0  0
   -0.8488    1.6644    3.5342 N   0  0  0  0  0  0  0  0  0  0  0  0
   -0.6984    1.5583    1.2133 N   0  0  0  0  0  0  0  0  0  0  0  0
   -0.0127    1.0858    0.0080 C   0  0  0  0  0  0  0  0  0  0  0  0
   -0.7527    1.5927   -1.2315 C   0  0  0  0  0  0  0  0  0  0  0  0
   -0.0366    1.0992   -2.4903 C   0  0  0  0  0  0  0  0  0  0  0  0
   -0.7766    1.6061   -3.7298 C   0  0  0  0  0  0  0  0  0  0  0  0
   -0.0604    1.1126   -4.9886 C   0  0  0  0  0  0  0  0  0  0  0  0
   -2.1059    0.9933   -6.2796 C   0  0  0  0  0  0  0  0  0  0  0  0
   -2.8417    1.5842   -7.4845 C   0  0  0  0  0  0  0  0  0  0  0  0
   -0.7248    1.9407   -8.6026 C   0  0  0  0  0  0  0  0  0  0  0  0
    0.0111    1.3497   -7.3977 C   0  0  0  0  0  0  0  0  0  0  0  0
   -2.7703    1.8213   -9.8936 C   0  0  0  0  0  0  0  0  0  0  0  0
   -3.1464    1.9984    5.6843 H   0  0  0  0  0  0  0  0  0  0  0  0
   -2.3472    3.3201    6.5692 H   0  0  0  0  0  0  0  0  0  0  0  0
   -2.1993    3.2176    4.7983 H   0  0  0  0  0  0  0  0  0  0  0  0
    2.1320   -0.3790    6.2574 H   0  0  0  0  0  0  0  0  0  0  0  0
    0.7451   -2.0112   11.0242 H   0  0  0  0  0  0  0  0  0  0  0  0
    2.3610   -0.5326   12.1435 H   0  0  0  0  0  0  0  0  0  0  0  0
    3.1601    1.5053   11.0215 H   0  0  0  0  0  0  0  0  0  0  0  0
    2.2790   -0.4839    3.7644 H   0  0  0  0  0  0  0  0  0  0  0  0
   -1.4954    2.1056    1.1349 H   0  0  0  0  0  0  0  0  0  0  0  0
    0.0021   -0.0041    0.0020 H   0  0  0  0  0  0  0  0  0  0  0  0
    1.0099    1.4631    0.0003 H   0  0  0  0  0  0  0  0  0  0  0  0
   -1.7753    1.2154   -1.2238 H   0  0  0  0  0  0  0  0  0  0  0  0
   -0.7675    2.6825   -1.2255 H   0  0  0  0  0  0  0  0  0  0  0  0
    0.9860    1.4765   -2.4981 H   0  0  0  0  0  0  0  0  0  0  0  0
   -0.0218    0.0093   -2.4963 H   0  0  0  0  0  0  0  0  0  0  0  0
   -1.7991    1.2288   -3.7221 H   0  0  0  0  0  0  0  0  0  0  0  0
   -0.7913    2.6960   -3.7239 H   0  0  0  0  0  0  0  0  0  0  0  0
    0.9622    1.4899   -4.9964 H   0  0  0  0  0  0  0  0  0  0  0  0
   -0.0456    0.0228   -4.9946 H   0  0  0  0  0  0  0  0  0  0  0  0
   -2.0072   -0.0848   -6.4067 H   0  0  0  0  0  0  0  0  0  0  0  0
   -2.6699    1.2025   -5.3706 H   0  0  0  0  0  0  0  0  0  0  0  0
   -2.9645    2.6582   -7.3447 H   0  0  0  0  0  0  0  0  0  0  0  0
   -3.8212    1.1151   -7.5784 H   0  0  0  0  0  0  0  0  0  0  0  0
   -0.8235    3.0187   -8.4755 H   0  0  0  0  0  0  0  0  0  0  0  0
   -0.1606    1.7318   -9.5115 H   0  0  0  0  0  0  0  0  0  0  0  0
    0.9905    1.8188   -7.3039 H   0  0  0  0  0  0  0  0  0  0  0  0
    0.1338    0.2757   -7.5375 H   0  0  0  0  0  0  0  0  0  0  0  0
   -2.2012    1.5640  -10.7869 H   0  0  0  0  0  0  0  0  0  0  0  0
   -3.7552    1.3570   -9.9439 H   0  0  0  0  0  0  0  0  0  0  0  0
   -2.8816    2.9039   -9.8329 H   0  0  0  0  0  0  0  0  0  0  0  0
   -0.7746    1.6269   -6.1767 N   0  3  0  0  0  0  0  0  0  0  0  0
   -0.8946    2.6421   -6.0803 H   0  0  0  0  0  0  0  0  0  0  0  0
   -2.0563    1.3070   -8.7054 N   0  3  0  0  0  0  0  0  0  0  0  0
   -1.9363    0.2918   -8.8018 H   0  0  0  0  0  0  0  0  0  0  0  0
  1  2  1  0  0  0  0
  1 32  1  0  0  0  0
  1 33  1  0  0  0  0
  1 34  1  0  0  0  0
  2  7  1  0  0  0  0
  2  3  1  0  0  0  0
  3 20  2  0  0  0  0
  3  4  1  0  0  0  0
  4  5  1  0  0  0  0
  4 17  2  0  0  0  0
  5  6  2  0  0  0  0
  5 35  1  0  0  0  0
  6  7  1  0  0  0  0
  6  9  1  0  0  0  0
  7  8  2  0  0  0  0
  9 14  2  0  0  0  0
  9 10  1  0  0  0  0
 10 11  2  0  0  0  0
 10 16  1  0  0  0  0
 11 12  1  0  0  0  0
 11 36  1  0  0  0  0
 12 13  2  0  0  0  0
 12 37  1  0  0  0  0
 13 14  1  0  0  0  0
 13 38  1  0  0  0  0
 14 15  1  0  0  0  0
 17 18  1  0  0  0  0
 17 39  1  0  0  0  0
 18 19  2  0  0  0  0
 19 20  1  0  0  0  0
 19 21  1  0  0  0  0
 21 22  1  0  0  0  0
 21 40  1  0  0  0  0
 22 23  1  0  0  0  0
 22 41  1  0  0  0  0
 22 42  1  0  0  0  0
 23 24  1  0  0  0  0
 23 43  1  0  0  0  0
 23 44  1  0  0  0  0
 24 25  1  0  0  0  0
 24 45  1  0  0  0  0
 24 46  1  0  0  0  0
 25 26  1  0  0  0  0
 25 47  1  0  0  0  0
 25 48  1  0  0  0  0
 26 49  1  0  0  0  0
 26 50  1  0  0  0  0
 26 62  1  0  0  0  0
 27 28  1  0  0  0  0
 27 51  1  0  0  0  0
 27 52  1  0  0  0  0
 27 62  1  0  0  0  0
 28 53  1  0  0  0  0
 28 54  1  0  0  0  0
 28 64  1  0  0  0  0
 29 30  1  0  0  0  0
 29 55  1  0  0  0  0
 29 56  1  0  0  0  0
 29 64  1  0  0  0  0
 30 57  1  0  0  0  0
 30 58  1  0  0  0  0
 30 62  1  0  0  0  0
 31 59  1  0  0  0  0
 31 60  1  0  0  0  0
 31 61  1  0  0  0  0
 31 64  1  0  0  0  0
 62 63  1  0  0  0  0
 64 65  1  0  0  0  0
M  CHG  2  62   1  64   1
M  END
$$$$
