
  ACD/Labs06042119383D

 56 59  0  0  0  0  0  0  0  0  2 V2000
   28.2787  -16.0792    3.8874 C   0  0  0  0  0  0  0  0  0  0  0  0
   25.9303  -16.6579    4.0113 C   0  0  0  0  0  0  0  0  0  0  0  0
   24.6172  -16.6644    3.2252 C   0  0  0  0  0  0  0  0  0  0  0  0
   25.3098  -14.6640    2.0517 C   0  0  0  0  0  0  0  0  0  0  0  0
   26.6229  -14.6574    2.8378 C   0  0  0  0  0  0  0  0  0  0  0  0
   22.9615  -15.2426    2.1756 C   0  0  0  0  0  0  0  0  0  0  0  0
   22.5029  -13.7891    2.0413 C   0  0  0  0  0  0  0  0  0  0  0  0
   21.1537  -13.7444    1.3212 C   0  0  0  0  0  0  0  0  0  0  0  0
   20.7145  -12.3527    1.1927 N   0  0  0  0  0  0  0  0  0  0  0  0
   19.5104  -12.0600    0.5694 C   0  0  0  0  0  0  0  0  0  0  0  0
   18.7319  -13.0963    0.0724 C   0  0  0  0  0  0  0  0  0  0  0  0
   17.5275  -12.7920   -0.5501 C   0  0  0  0  0  0  0  0  0  0  0  0
   17.1484  -11.4350   -0.6492 C   0  0  0  0  0  0  0  0  0  0  0  0
   15.9284  -11.0867   -1.2761 C   0  0  0  0  0  0  0  0  0  0  0  0
   15.1315  -12.0786   -1.7791 C   0  0  0  0  0  0  0  0  0  0  0  0
   15.5543  -13.4759   -1.6596 C   0  0  0  0  0  0  0  0  0  0  0  0
   14.8491  -14.3633   -2.1060 O   0  0  0  0  0  0  0  0  0  0  0  0
   16.7204  -13.7835   -1.0585 N   0  0  0  0  0  0  0  0  0  0  0  0
   17.0014  -14.7401   -0.9814 H   0  0  0  0  0  0  0  0  0  0  0  0
   13.8494  -11.7415   -2.4407 C   0  0  0  0  0  0  0  0  0  0  0  0
   12.6732  -11.6687   -1.6934 C   0  0  0  0  0  0  0  0  0  0  0  0
   11.4823  -11.3483   -2.3152 C   0  0  0  0  0  0  0  0  0  0  0  0
   11.4520  -11.1111   -3.6777 C   0  0  0  0  0  0  0  0  0  0  0  0
   12.6135  -11.1872   -4.4252 C   0  0  0  0  0  0  0  0  0  0  0  0
   13.8119  -11.5010   -3.8146 C   0  0  0  0  0  0  0  0  0  0  0  0
   15.2683  -11.5966   -4.7547 Cl  0  0  0  0  0  0  0  0  0  0  0  0
   12.7078  -11.9738    0.0153 Cl  0  0  0  0  0  0  0  0  0  0  0  0
   17.9916  -10.4532   -0.1154 C   0  0  0  0  0  0  0  0  0  0  0  0
   28.5530  -17.1162    4.0811 H   0  0  0  0  0  0  0  0  0  0  0  0
   29.0400  -15.6128    3.2621 H   0  0  0  0  0  0  0  0  0  0  0  0
   28.2043  -15.5405    4.8321 H   0  0  0  0  0  0  0  0  0  0  0  0
   25.8002  -16.0892    4.9321 H   0  0  0  0  0  0  0  0  0  0  0  0
   26.2144  -17.6820    4.2534 H   0  0  0  0  0  0  0  0  0  0  0  0
   23.8281  -17.0987    3.8390 H   0  0  0  0  0  0  0  0  0  0  0  0
   24.7396  -17.2558    2.3178 H   0  0  0  0  0  0  0  0  0  0  0  0
   25.4400  -15.2326    1.1309 H   0  0  0  0  0  0  0  0  0  0  0  0
   25.0255  -13.6398    1.8099 H   0  0  0  0  0  0  0  0  0  0  0  0
   26.5005  -14.0661    3.7453 H   0  0  0  0  0  0  0  0  0  0  0  0
   27.4121  -14.2231    2.2240 H   0  0  0  0  0  0  0  0  0  0  0  0
   22.2246  -15.8045    2.7495 H   0  0  0  0  0  0  0  0  0  0  0  0
   23.0637  -15.6843    1.1844 H   0  0  0  0  0  0  0  0  0  0  0  0
   23.2398  -13.2272    1.4675 H   0  0  0  0  0  0  0  0  0  0  0  0
   22.4005  -13.3474    3.0326 H   0  0  0  0  0  0  0  0  0  0  0  0
   20.4168  -14.3064    1.8951 H   0  0  0  0  0  0  0  0  0  0  0  0
   21.2560  -14.1862    0.3300 H   0  0  0  0  0  0  0  0  0  0  0  0
   21.2659  -11.6359    1.5435 H   0  0  0  0  0  0  0  0  0  0  0  0
   19.0571  -14.1218    0.1676 H   0  0  0  0  0  0  0  0  0  0  0  0
   15.6306  -10.0517   -1.3566 H   0  0  0  0  0  0  0  0  0  0  0  0
   10.5720  -11.2874   -1.7373 H   0  0  0  0  0  0  0  0  0  0  0  0
   10.5173  -10.8657   -4.1601 H   0  0  0  0  0  0  0  0  0  0  0  0
   12.5831  -11.0005   -5.4886 H   0  0  0  0  0  0  0  0  0  0  0  0
   17.7129   -9.4117   -0.1802 H   0  0  0  0  0  0  0  0  0  0  0  0
   26.9848  -16.0510    3.1723 N   0  3  0  0  0  0  0  0  0  0  0  0
   27.0721  -16.5911    2.3034 H   0  0  0  0  0  0  0  0  0  0  0  0
   24.2551  -15.2711    2.8908 N   0  0  0  0  0  0  0  0  0  0  0  0
   19.1731  -10.7338    0.4906 N   0  0  0  0  0  0  0  0  0  0  0  0
  1 29  1  0  0  0  0
  1 30  1  0  0  0  0
  1 31  1  0  0  0  0
  1 53  1  0  0  0  0
  2  3  1  0  0  0  0
  2 32  1  0  0  0  0
  2 33  1  0  0  0  0
  2 53  1  0  0  0  0
  3 34  1  0  0  0  0
  3 35  1  0  0  0  0
  3 55  1  0  0  0  0
  4  5  1  0  0  0  0
  4 36  1  0  0  0  0
  4 37  1  0  0  0  0
  4 55  1  0  0  0  0
  5 38  1  0  0  0  0
  5 39  1  0  0  0  0
  5 53  1  0  0  0  0
  6  7  1  0  0  0  0
  6 40  1  0  0  0  0
  6 41  1  0  0  0  0
  6 55  1  0  0  0  0
  7  8  1  0  0  0  0
  7 42  1  0  0  0  0
  7 43  1  0  0  0  0
  8  9  1  0  0  0  0
  8 44  1  0  0  0  0
  8 45  1  0  0  0  0
  9 10  1  0  0  0  0
  9 46  1  0  0  0  0
 10 11  2  0  0  0  0
 10 56  1  0  0  0  0
 11 12  1  0  0  0  0
 11 47  1  0  0  0  0
 12 18  1  0  0  0  0
 12 13  2  0  0  0  0
 13 14  1  0  0  0  0
 13 28  1  0  0  0  0
 14 15  2  0  0  0  0
 14 48  1  0  0  0  0
 15 16  1  0  0  0  0
 15 20  1  0  0  0  0
 16 17  2  0  0  0  0
 16 18  1  0  0  0  0
 18 19  1  0  0  0  0
 20 25  2  0  0  0  0
 20 21  1  0  0  0  0
 21 22  2  0  0  0  0
 21 27  1  0  0  0  0
 22 23  1  0  0  0  0
 22 49  1  0  0  0  0
 23 24  2  0  0  0  0
 23 50  1  0  0  0  0
 24 25  1  0  0  0  0
 24 51  1  0  0  0  0
 25 26  1  0  0  0  0
 28 52  1  0  0  0  0
 28 56  2  0  0  0  0
 53 54  1  0  0  0  0
M  CHG  1  53   1
M  END
