ZINC03815567
  -OEChem-08230709403D

 46 48  0     0  0  0  0  0  0999 V2000
    2.3295    5.8132    3.5207 C   0  0  0  0  0  0  0  0  0  0  0  0
    0.7870    7.5765    2.9091 C   0  0  0  0  0  0  0  0  0  0  0  0
    1.0604    5.6524    1.4649 C   0  0  0  0  0  0  0  0  0  0  0  0
    1.0991    4.1229    1.4563 C   0  0  0  0  0  0  0  0  0  0  0  0
    1.0982    3.6208    0.0110 C   0  0  0  0  0  0  0  0  0  0  0  0
    1.1353    2.1563    0.0028 N   0  0  0  0  0  0  0  0  0  0  0  0
    2.3442    1.5078   -0.0123 C   0  0  0  0  0  0  0  0  0  0  0  0
    2.3976    0.0971   -0.0204 C   0  0  0  0  0  0  0  0  0  0  0  0
    1.2037   -0.6599   -0.0130 C   0  0  0  0  0  0  0  0  0  0  0  0
    0.0021   -0.0041    0.0020 C   0  0  0  0  0  0  0  0  0  0  0  0
   -0.0178    1.4603    0.0101 C   0  0  0  0  0  0  0  0  0  0  0  0
   -1.0826    2.0518    0.0183 O   0  0  0  0  0  0  0  0  0  0  0  0
   -1.2669   -0.7688    0.0096 C   0  0  0  0  0  0  0  0  0  0  0  0
   -1.8811   -1.1191   -1.1934 C   0  0  0  0  0  0  0  0  0  0  0  0
   -3.0611   -1.8367   -1.1795 C   0  0  0  0  0  0  0  0  0  0  0  0
   -3.6396   -2.1990    0.0237 C   0  0  0  0  0  0  0  0  0  0  0  0
   -3.0388   -1.8500    1.2198 C   0  0  0  0  0  0  0  0  0  0  0  0
   -1.8559   -1.1370    1.2198 C   0  0  0  0  0  0  0  0  0  0  0  0
   -1.1039   -0.6995    2.7220 Cl  0  0  0  0  0  0  0  0  0  0  0  0
   -1.1601   -0.6597   -2.7043 Cl  0  0  0  0  0  0  0  0  0  0  0  0
    3.6539   -0.5268   -0.0352 C   0  0  0  0  0  0  0  0  0  0  0  0
    4.7353    0.2302   -0.0411 N   0  0  0  0  0  0  0  0  0  0  0  0
    4.6469    1.5556   -0.0332 C   0  0  0  0  0  0  0  0  0  0  0  0
    3.4843    2.1894   -0.0191 N   0  0  0  0  0  0  0  0  0  0  0  0
    5.8098    2.2997   -0.0394 N   0  0  0  0  0  0  0  0  0  0  0  0
    3.1523    6.2872    2.9856 H   0  0  0  0  0  0  0  0  0  0  0  0
    2.3032    6.1812    4.5464 H   0  0  0  0  0  0  0  0  0  0  0  0
    2.4739    4.7328    3.5259 H   0  0  0  0  0  0  0  0  0  0  0  0
   -0.1900    7.7780    2.4697 H   0  0  0  0  0  0  0  0  0  0  0  0
    0.7934    7.9071    3.9477 H   0  0  0  0  0  0  0  0  0  0  0  0
    1.5540    8.1143    2.3518 H   0  0  0  0  0  0  0  0  0  0  0  0
    1.9360    6.0409    0.9448 H   0  0  0  0  0  0  0  0  0  0  0  0
    0.1566    5.9958    0.9615 H   0  0  0  0  0  0  0  0  0  0  0  0
    0.2236    3.7344    1.9765 H   0  0  0  0  0  0  0  0  0  0  0  0
    2.0029    3.7795    1.9597 H   0  0  0  0  0  0  0  0  0  0  0  0
    1.9738    4.0094   -0.5091 H   0  0  0  0  0  0  0  0  0  0  0  0
    0.1945    3.9643   -0.4923 H   0  0  0  0  0  0  0  0  0  0  0  0
    1.2390   -1.7393   -0.0188 H   0  0  0  0  0  0  0  0  0  0  0  0
   -3.5352   -2.1123   -2.1099 H   0  0  0  0  0  0  0  0  0  0  0  0
   -4.5645   -2.7565    0.0292 H   0  0  0  0  0  0  0  0  0  0  0  0
   -3.4956   -2.1359    2.1558 H   0  0  0  0  0  0  0  0  0  0  0  0
    3.7347   -1.6038   -0.0414 H   0  0  0  0  0  0  0  0  0  0  0  0
    5.7657    3.2687   -0.0334 H   0  0  0  0  0  0  0  0  0  0  0  0
    6.6710    1.8535   -0.0497 H   0  0  0  0  0  0  0  0  0  0  0  0
    1.0402    6.1209    2.8666 N   0  3  0  0  0  0  0  0  0  0  0  0
    0.2873    5.6366    3.3694 H   0  0  0  0  0  0  0  0  0  0  0  0
  1 26  1  0  0  0  0
  1 27  1  0  0  0  0
  1 28  1  0  0  0  0
  1 45  1  0  0  0  0
  2 29  1  0  0  0  0
  2 30  1  0  0  0  0
  2 31  1  0  0  0  0
  2 45  1  0  0  0  0
  3  4  1  0  0  0  0
  3 32  1  0  0  0  0
  3 33  1  0  0  0  0
  3 45  1  0  0  0  0
  4  5  1  0  0  0  0
  4 34  1  0  0  0  0
  4 35  1  0  0  0  0
  5  6  1  0  0  0  0
  5 36  1  0  0  0  0
  5 37  1  0  0  0  0
  6 11  1  0  0  0  0
  6  7  1  0  0  0  0
  7 24  2  0  0  0  0
  7  8  1  0  0  0  0
  8  9  1  0  0  0  0
  8 21  2  0  0  0  0
  9 10  2  0  0  0  0
  9 38  1  0  0  0  0
 10 11  1  0  0  0  0
 10 13  1  0  0  0  0
 11 12  2  0  0  0  0
 13 18  2  0  0  0  0
 13 14  1  0  0  0  0
 14 15  2  0  0  0  0
 14 20  1  0  0  0  0
 15 16  1  0  0  0  0
 15 39  1  0  0  0  0
 16 17  2  0  0  0  0
 16 40  1  0  0  0  0
 17 18  1  0  0  0  0
 17 41  1  0  0  0  0
 18 19  1  0  0  0  0
 21 22  1  0  0  0  0
 21 42  1  0  0  0  0
 22 23  2  0  0  0  0
 23 24  1  0  0  0  0
 23 25  1  0  0  0  0
 25 43  1  0  0  0  0
 25 44  1  0  0  0  0
 45 46  1  0  0  0  0
M  CHG  1  45   1
M  END
$$$$
