
  ACD/Labs06042119433D

 48 50  0  0  0  0  0  0  0  0  2 V2000
   17.1355   -2.1780   -3.3096 C   0  0  0  0  0  0  0  0  0  0  0  0
   17.6863   -3.5438   -2.9832 C   0  0  0  0  0  0  0  0  0  0  0  0
   16.8368   -4.5276   -2.5013 C   0  0  0  0  0  0  0  0  0  0  0  0
   17.3411   -5.7815   -2.2065 C   0  0  0  0  0  0  0  0  0  0  0  0
   18.6856   -6.0376   -2.3888 N   0  0  0  0  0  0  0  0  0  0  0  0
   19.5334   -5.0583   -2.8655 C   0  0  0  0  0  0  0  0  0  0  0  0
   19.0349   -3.8033   -3.1693 C   0  0  0  0  0  0  0  0  0  0  0  0
   19.8398   -2.8555   -3.6393 F   0  0  0  0  0  0  0  0  0  0  0  0
   20.8500   -5.3562   -3.0348 O   0  0  0  0  0  0  0  0  0  0  0  0
   21.2557   -6.6462   -3.2427 C   0  0  0  0  0  0  0  0  0  0  0  0
   20.3245   -7.6510   -3.4712 C   0  0  0  0  0  0  0  0  0  0  0  0
   20.7393   -8.9534   -3.6908 C   0  0  0  0  0  0  0  0  0  0  0  0
   22.0910   -9.2549   -3.6853 C   0  0  0  0  0  0  0  0  0  0  0  0
   23.0260   -8.2579   -3.4568 C   0  0  0  0  0  0  0  0  0  0  0  0
   22.6081   -6.9539   -3.2340 C   0  0  0  0  0  0  0  0  0  0  0  0
   24.4583   -8.5936   -3.4591 C   0  0  0  0  0  0  0  0  0  0  0  0
   16.5372   -6.7730   -1.7316 O   0  0  0  0  0  0  0  0  0  0  0  0
   17.0861   -7.8988   -1.1821 C   0  0  0  0  0  0  0  0  0  0  0  0
   18.3279   -7.8537   -0.5615 C   0  0  0  0  0  0  0  0  0  0  0  0
   18.8686   -8.9992    0.0000 C   0  0  0  0  0  0  0  0  0  0  0  0
   18.1680  -10.1928   -0.0544 C   0  0  0  0  0  0  0  0  0  0  0  0
   16.9312  -10.2432   -0.6744 C   0  0  0  0  0  0  0  0  0  0  0  0
   16.3908   -9.0963   -1.2395 C   0  0  0  0  0  0  0  0  0  0  0  0
   16.1984  -11.5192   -0.7244 C   0  0  0  0  0  0  0  0  0  0  0  0
   15.5434   -4.2675   -2.3216 F   0  0  0  0  0  0  0  0  0  0  0  0
   24.8902   -9.7516   -2.8499 N   0  0  0  0  0  0  0  0  0  0  0  0
   25.3439   -7.7897   -4.0654 N   0  3  0  0  0  0  0  0  0  0  0  0
   16.8775  -12.6894   -0.9964 N   0  0  0  0  0  0  0  0  0  0  0  0
   14.8774  -11.5530   -0.4990 N   0  3  0  0  0  0  0  0  0  0  0  0
   17.0851   -2.0532   -4.4125 H   0  0  0  0  0  0  0  0  0  0  0  0
   16.1162   -2.0775   -2.8787 H   0  0  0  0  0  0  0  0  0  0  0  0
   17.7998   -1.3985   -2.8787 H   0  0  0  0  0  0  0  0  0  0  0  0
   19.2397   -7.4111   -3.4782 H   0  0  0  0  0  0  0  0  0  0  0  0
   19.9901   -9.7538   -3.8709 H   0  0  0  0  0  0  0  0  0  0  0  0
   22.4261  -10.2988   -3.8645 H   0  0  0  0  0  0  0  0  0  0  0  0
   23.3575   -6.1550   -3.0484 H   0  0  0  0  0  0  0  0  0  0  0  0
   18.8912   -6.8972   -0.5140 H   0  0  0  0  0  0  0  0  0  0  0  0
   19.8633   -8.9608    0.4935 H   0  0  0  0  0  0  0  0  0  0  0  0
   18.5987  -11.1107    0.3998 H   0  0  0  0  0  0  0  0  0  0  0  0
   15.3993   -9.1369   -1.7391 H   0  0  0  0  0  0  0  0  0  0  0  0
   25.9138  -10.0030   -2.8614 H   0  0  0  0  0  0  0  0  0  0  0  0
   24.1972  -10.3860   -2.3723 H   0  0  0  0  0  0  0  0  0  0  0  0
   26.4219   -8.0583   -4.0753 H   0  0  0  0  0  0  0  0  0  0  0  0
   24.9998   -6.8552   -4.5577 H   0  0  0  0  0  0  0  0  0  0  0  0
   16.3575  -13.6057   -1.0265 H   0  0  0  0  0  0  0  0  0  0  0  0
   17.9161  -12.6668   -1.1742 H   0  0  0  0  0  0  0  0  0  0  0  0
   14.3329  -12.5209   -0.5315 H   0  0  0  0  0  0  0  0  0  0  0  0
   14.3271  -10.6132   -0.2796 H   0  0  0  0  0  0  0  0  0  0  0  0
  1  2  1  0  0  0  0
  2  7  2  0  0  0  0
  2  3  1  0  0  0  0
  3  4  2  0  0  0  0
  3 25  1  0  0  0  0
  4  5  1  0  0  0  0
  4 17  1  0  0  0  0
  5  6  2  0  0  0  0
  6  7  1  0  0  0  0
  6  9  1  0  0  0  0
  7  8  1  0  0  0  0
  9 10  1  0  0  0  0
 10 15  2  0  0  0  0
 10 11  1  0  0  0  0
 11 12  2  0  0  0  0
 12 13  1  0  0  0  0
 13 14  2  0  0  0  0
 14 15  1  0  0  0  0
 14 16  1  0  0  0  0
 16 26  1  0  0  0  0
 16 27  2  0  0  0  0
 17 18  1  0  0  0  0
 18 23  2  0  0  0  0
 18 19  1  0  0  0  0
 19 20  2  0  0  0  0
 20 21  1  0  0  0  0
 21 22  2  0  0  0  0
 22 23  1  0  0  0  0
 22 24  1  0  0  0  0
 24 28  1  0  0  0  0
 24 29  2  0  0  0  0
 30  1  1  0  0  0  0
 31  1  1  0  0  0  0
 32  1  1  0  0  0  0
 33 11  1  0  0  0  0
 34 12  1  0  0  0  0
 35 13  1  0  0  0  0
 36 15  1  0  0  0  0
 37 19  1  0  0  0  0
 38 20  1  0  0  0  0
 39 21  1  0  0  0  0
 40 23  1  0  0  0  0
 41 26  1  0  0  0  0
 42 26  1  0  0  0  0
 43 27  1  0  0  0  0
 44 27  1  0  0  0  0
 45 28  1  0  0  0  0
 46 28  1  0  0  0  0
 47 29  1  0  0  0  0
 48 29  1  0  0  0  0
M  CHG  2  27   1  29   1
M  END
