
  ACD/Labs07171520393D

 66 70  0  0  0  0  0  0  0  0  1 V2000
   13.6851   -6.9061   54.3609 N   0  0  0  0  0  0  0  0  0  0  0  0
   13.8631   -7.7162   55.4239 C   0  0  0  0  0  0  0  0  0  0  0  0
   12.7742   -8.4321   55.7700 N   0  0  0  0  0  0  0  0  0  0  0  0
   15.1101   -7.8082   56.1250 C   0  0  0  0  0  0  0  0  0  0  0  0
   16.2751   -7.1682   55.6319 C   0  0  0  0  0  0  0  0  0  0  0  0
   17.5161   -7.2571   56.3070 C   0  0  0  0  0  0  0  0  0  0  0  0
   18.6692   -6.6121   55.8100 C   0  0  0  0  0  0  0  0  0  0  0  0
   19.9132   -6.7042   56.4789 C   0  0  0  0  0  0  0  0  0  0  0  0
   19.9782   -7.4571   57.6779 C   0  0  0  0  0  0  0  0  0  0  0  0
   18.8382   -8.0981   58.1890 C   0  0  0  0  0  0  0  0  0  0  0  0
   17.6002   -8.0011   57.5180 C   0  0  0  0  0  0  0  0  0  0  0  0
   16.4491   -8.6411   58.0180 C   0  0  0  0  0  0  0  0  0  0  0  0
   15.2231   -8.5401   57.3350 C   0  0  0  0  0  0  0  0  0  0  0  0
   21.0811   -5.9761   55.9050 C   0  0  0  0  0  0  0  0  0  0  0  0
   22.3451   -6.1802   56.5619 N   0  0  0  0  0  0  0  0  0  0  0  0
   22.9082   -5.3981   57.5200 C   0  0  0  0  0  0  0  0  0  0  0  0
   22.3552   -4.1611   58.1030 C   0  0  0  0  0  0  0  0  0  0  0  0
   24.0902   -5.9161   57.9110 N   0  0  0  0  0  0  0  0  0  0  0  0
   24.2802   -7.0352   57.2040 C   0  0  0  0  0  0  0  0  0  0  0  0
   25.3481   -7.9442   57.2299 C   0  0  0  0  0  0  0  0  0  0  0  0
   25.3041   -9.0601   56.3719 C   0  0  0  0  0  0  0  0  0  0  0  0
   24.2012   -9.2661   55.4960 C   0  0  0  0  0  0  0  0  0  0  0  0
   23.1372   -8.3321   55.5050 C   0  0  0  0  0  0  0  0  0  0  0  0
   23.1902   -7.2122   56.3579 C   0  0  0  0  0  0  0  0  0  0  0  0
   24.0511  -10.3151   54.6159 O   0  0  0  0  0  0  0  0  0  0  0  0
   24.9312  -11.4611   54.5600 C   0  0  0  0  0  0  0  0  0  0  0  0
   26.2241  -11.1711   53.7409 C   0  0  0  0  0  0  0  0  0  0  0  0
   25.9192  -10.9991   52.2289 C   0  0  0  0  0  0  0  0  0  0  0  0
   25.1911  -12.1511   51.7180 N   0  0  0  0  0  0  0  0  0  0  0  0
   23.9241  -12.3981   52.3909 C   0  0  0  0  0  0  0  0  0  0  0  0
   24.1501  -12.6340   53.9069 C   0  0  0  0  0  0  0  0  0  0  0  0
   25.6711  -12.9651   50.7109 C   0  0  0  0  0  0  0  0  0  0  0  0
   24.9862  -14.0350   50.2650 N   0  0  0  0  0  0  0  0  0  0  0  0
   26.9701  -12.7371   50.0200 C   0  0  0  0  0  0  0  0  0  0  0  0
   12.8251   -6.8781   53.9129 H   0  0  0  0  0  0  0  0  0  0  0  0
   12.8002   -9.0451   56.5170 H   0  0  0  0  0  0  0  0  0  0  0  0
   11.9551   -8.3381   55.2539 H   0  0  0  0  0  0  0  0  0  0  0  0
   16.2351   -6.6382   54.7590 H   0  0  0  0  0  0  0  0  0  0  0  0
   18.6071   -6.0721   54.9429 H   0  0  0  0  0  0  0  0  0  0  0  0
   20.8532   -7.5431   58.1959 H   0  0  0  0  0  0  0  0  0  0  0  0
   18.9172   -8.6311   59.0579 H   0  0  0  0  0  0  0  0  0  0  0  0
   16.4911   -9.1801   58.8870 H   0  0  0  0  0  0  0  0  0  0  0  0
   14.4142   -9.0131   57.7389 H   0  0  0  0  0  0  0  0  0  0  0  0
   21.1932   -6.2642   54.8549 H   0  0  0  0  0  0  0  0  0  0  0  0
   20.8361   -4.9131   55.8990 H   0  0  0  0  0  0  0  0  0  0  0  0
   22.2622   -3.3992   57.3280 H   0  0  0  0  0  0  0  0  0  0  0  0
   23.0042   -3.7811   58.8960 H   0  0  0  0  0  0  0  0  0  0  0  0
   21.3722   -4.3711   58.5279 H   0  0  0  0  0  0  0  0  0  0  0  0
   26.1372   -7.7971   57.8629 H   0  0  0  0  0  0  0  0  0  0  0  0
   26.0792   -9.7190   56.4029 H   0  0  0  0  0  0  0  0  0  0  0  0
   22.3341   -8.4691   54.8939 H   0  0  0  0  0  0  0  0  0  0  0  0
   25.1941  -11.7811   55.5730 H   0  0  0  0  0  0  0  0  0  0  0  0
   26.7201  -10.2711   54.1060 H   0  0  0  0  0  0  0  0  0  0  0  0
   26.9232  -12.0040   53.8669 H   0  0  0  0  0  0  0  0  0  0  0  0
   25.3101  -10.1001   52.0870 H   0  0  0  0  0  0  0  0  0  0  0  0
   26.8641  -10.8031   51.7239 H   0  0  0  0  0  0  0  0  0  0  0  0
   23.2751  -11.5301   52.2530 H   0  0  0  0  0  0  0  0  0  0  0  0
   23.3651  -13.2540   52.0129 H   0  0  0  0  0  0  0  0  0  0  0  0
   24.7182  -13.5611   54.0369 H   0  0  0  0  0  0  0  0  0  0  0  0
   23.1842  -12.7611   54.4099 H   0  0  0  0  0  0  0  0  0  0  0  0
   25.3582  -14.5810   49.5540 H   0  0  0  0  0  0  0  0  0  0  0  0
   26.9681  -11.7561   49.5450 H   0  0  0  0  0  0  0  0  0  0  0  0
   27.1642  -13.4830   49.2430 H   0  0  0  0  0  0  0  0  0  0  0  0
   27.7871  -12.7940   50.7439 H   0  0  0  0  0  0  0  0  0  0  0  0
   14.4052   -6.3351   54.0519 H   0  0  0  0  0  0  0  0  0  0  0  0
   24.1241  -14.2690   50.6360 H   0  0  0  0  0  0  0  0  0  0  0  0
  1 65  1  0  0  0  0
  1 35  1  0  0  0  0
  1  2  2  0  0  0  0
  2  3  1  0  0  0  0
  2  4  1  0  0  0  0
  3 37  1  0  0  0  0
  3 36  1  0  0  0  0
  4  5  2  0  0  0  0
  4 13  1  0  0  0  0
  5 38  1  0  0  0  0
  5  6  1  0  0  0  0
  6  7  2  0  0  0  0
  6 11  1  0  0  0  0
  7 39  1  0  0  0  0
  7  8  1  0  0  0  0
  8  9  2  0  0  0  0
  8 14  1  0  0  0  0
  9 40  1  0  0  0  0
  9 10  1  0  0  0  0
 10 41  1  0  0  0  0
 10 11  2  0  0  0  0
 11 12  1  0  0  0  0
 12 42  1  0  0  0  0
 12 13  2  0  0  0  0
 13 43  1  0  0  0  0
 14 45  1  0  0  0  0
 14 44  1  0  0  0  0
 14 15  1  0  0  0  0
 15 16  1  0  0  0  0
 15 24  1  0  0  0  0
 16 17  1  0  0  0  0
 16 18  2  0  0  0  0
 17 48  1  0  0  0  0
 17 47  1  0  0  0  0
 17 46  1  0  0  0  0
 18 19  1  0  0  0  0
 19 20  2  0  0  0  0
 19 24  1  0  0  0  0
 20 49  1  0  0  0  0
 20 21  1  0  0  0  0
 21 50  1  0  0  0  0
 21 22  2  0  0  0  0
 22 23  1  0  0  0  0
 22 25  1  0  0  0  0
 23 51  1  0  0  0  0
 23 24  2  0  0  0  0
 25 26  1  0  0  0  0
 26 52  1  0  0  0  0
 26 27  1  0  0  0  0
 26 31  1  0  0  0  0
 27 54  1  0  0  0  0
 27 53  1  0  0  0  0
 27 28  1  0  0  0  0
 28 56  1  0  0  0  0
 28 55  1  0  0  0  0
 28 29  1  0  0  0  0
 29 30  1  0  0  0  0
 29 32  1  0  0  0  0
 30 58  1  0  0  0  0
 30 57  1  0  0  0  0
 30 31  1  0  0  0  0
 31 60  1  0  0  0  0
 31 59  1  0  0  0  0
 32 33  2  0  0  0  0
 32 34  1  0  0  0  0
 33 66  1  0  0  0  0
 33 61  1  0  0  0  0
 34 64  1  0  0  0  0
 34 63  1  0  0  0  0
 34 62  1  0  0  0  0
M  END
