
  ACD/Labs07171520393D

 67 71  0  0  0  0  0  0  0  0  1 V2000
   20.4305  -15.7219   12.4160 O   0  0  0  0  0  0  0  0  0  0  0  0
   20.8765  -15.7309   11.1219 C   0  0  0  0  0  0  0  0  0  0  0  0
   19.9494  -15.7919   10.0589 C   0  0  0  0  0  0  0  0  0  0  0  0
   20.3705  -15.8099    8.7040 C   0  0  0  0  0  0  0  0  0  0  0  0
   21.7675  -15.7660    8.4550 C   0  0  0  0  0  0  0  0  0  0  0  0
   22.7005  -15.7180    9.5090 C   0  0  0  0  0  0  0  0  0  0  0  0
   22.2604  -15.7110   10.8450 C   0  0  0  0  0  0  0  0  0  0  0  0
   23.1875  -15.6650   11.8360 O   0  0  0  0  0  0  0  0  0  0  0  0
   19.4285  -15.8829    7.6310 C   0  0  0  0  0  0  0  0  0  0  0  0
   18.1135  -15.6459    7.8049 N   0  0  0  0  0  0  0  0  0  0  0  0
   19.7884  -16.1990    6.3730 N   0  0  0  0  0  0  0  0  0  0  0  0
   19.2095  -14.3679   13.9800 C   0  0  0  0  0  0  0  0  0  0  0  0
   18.9465  -13.1129   14.5999 C   0  0  0  0  0  0  0  0  0  0  0  0
   19.6854  -11.9879   14.1379 C   0  0  0  0  0  0  0  0  0  0  0  0
   20.6295  -12.1360   13.0969 C   0  0  0  0  0  0  0  0  0  0  0  0
   20.8434  -13.3640   12.5719 N   0  0  0  0  0  0  0  0  0  0  0  0
   20.1715  -14.4800   12.9540 C   0  0  0  0  0  0  0  0  0  0  0  0
   18.0235  -12.9959   15.6150 N   0  0  0  0  0  0  0  0  0  0  0  0
   17.9584  -13.9520   16.7089 C   0  0  0  0  0  0  0  0  0  0  0  0
   18.1045  -13.2319   18.0839 C   0  0  0  0  0  0  0  0  0  0  0  0
   17.0825  -12.0639   18.2109 C   0  0  0  0  0  0  0  0  0  0  0  0
   17.1625  -11.1159   16.9869 C   0  0  0  0  0  0  0  0  0  0  0  0
   17.0495  -11.9169   15.6649 C   0  0  0  0  0  0  0  0  0  0  0  0
   17.9774  -14.1889   19.2070 C   0  0  0  0  0  0  0  0  0  0  0  0
   16.8285  -14.8709   19.4190 O   0  0  0  0  0  0  0  0  0  0  0  0
   19.0094  -14.3950   20.0590 O   0  0  0  0  0  0  0  0  0  0  0  0
   21.4115  -11.1239   12.6069 O   0  0  0  0  0  0  0  0  0  0  0  0
   20.7654  -10.0639   12.0169 C   0  0  0  0  0  0  0  0  0  0  0  0
   19.7154  -10.2000   11.0779 C   0  0  0  0  0  0  0  0  0  0  0  0
   19.1184   -9.0590   10.5129 C   0  0  0  0  0  0  0  0  0  0  0  0
   19.5905   -7.7760   10.8450 C   0  0  0  0  0  0  0  0  0  0  0  0
   20.6715   -7.6149   11.7409 C   0  0  0  0  0  0  0  0  0  0  0  0
   21.2355   -8.7739   12.3320 C   0  0  0  0  0  0  0  0  0  0  0  0
   21.1894   -6.3349   12.0660 C   0  0  0  0  0  0  0  0  0  0  0  0
   21.4765   -5.2900   11.2449 N   0  0  0  0  0  0  0  0  0  0  0  0
   21.3454   -5.2069    9.8200 C   0  0  0  0  0  0  0  0  0  0  0  0
   21.5484   -6.0170   13.3269 N   0  0  0  0  0  0  0  0  0  0  0  0
   22.0034   -4.3159   12.0109 C   0  0  0  0  0  0  0  0  0  0  0  0
   22.0414   -4.7750   13.3149 C   0  0  0  0  0  0  0  0  0  0  0  0
   18.5164  -15.4379   14.2710 F   0  0  0  0  0  0  0  0  0  0  0  0
   19.6034  -10.8199   14.7180 F   0  0  0  0  0  0  0  0  0  0  0  0
   18.9524  -15.8379   10.2929 H   0  0  0  0  0  0  0  0  0  0  0  0
   22.1295  -15.7630    7.4980 H   0  0  0  0  0  0  0  0  0  0  0  0
   23.7035  -15.6879    9.3019 H   0  0  0  0  0  0  0  0  0  0  0  0
   22.6894  -15.7200   12.6799 H   0  0  0  0  0  0  0  0  0  0  0  0
   17.5055  -15.7050    7.0449 H   0  0  0  0  0  0  0  0  0  0  0  0
   17.7664  -15.3959    8.6790 H   0  0  0  0  0  0  0  0  0  0  0  0
   19.1184  -16.2429    5.6719 H   0  0  0  0  0  0  0  0  0  0  0  0
   17.0024  -14.4819   16.6610 H   0  0  0  0  0  0  0  0  0  0  0  0
   18.7564  -14.6969   16.6529 H   0  0  0  0  0  0  0  0  0  0  0  0
   19.1094  -12.7970   18.1189 H   0  0  0  0  0  0  0  0  0  0  0  0
   16.0665  -12.4629   18.2850 H   0  0  0  0  0  0  0  0  0  0  0  0
   17.2875  -11.4899   19.1200 H   0  0  0  0  0  0  0  0  0  0  0  0
   16.3564  -10.3799   17.0420 H   0  0  0  0  0  0  0  0  0  0  0  0
   18.1135  -10.5759   17.0070 H   0  0  0  0  0  0  0  0  0  0  0  0
   17.1305  -11.2279   14.8209 H   0  0  0  0  0  0  0  0  0  0  0  0
   16.0474  -12.3499   15.6039 H   0  0  0  0  0  0  0  0  0  0  0  0
   19.3784  -11.1290   10.8149 H   0  0  0  0  0  0  0  0  0  0  0  0
   18.3394   -9.1609    9.8599 H   0  0  0  0  0  0  0  0  0  0  0  0
   19.1184   -6.9650   10.4399 H   0  0  0  0  0  0  0  0  0  0  0  0
   22.0175   -8.6849   12.9849 H   0  0  0  0  0  0  0  0  0  0  0  0
   21.7745   -6.0939    9.3499 H   0  0  0  0  0  0  0  0  0  0  0  0
   21.8564   -4.3310    9.4139 H   0  0  0  0  0  0  0  0  0  0  0  0
   20.2924   -5.1309    9.5480 H   0  0  0  0  0  0  0  0  0  0  0  0
   22.3434   -3.4040   11.7010 H   0  0  0  0  0  0  0  0  0  0  0  0
   22.3974   -4.2610   14.1240 H   0  0  0  0  0  0  0  0  0  0  0  0
   20.7144  -16.3989    6.1600 H   0  0  0  0  0  0  0  0  0  0  0  0
  1  2  1  0  0  0  0
  1 17  1  0  0  0  0
  2  3  2  0  0  0  0
  2  7  1  0  0  0  0
  3 42  1  0  0  0  0
  3  4  1  0  0  0  0
  4  5  2  0  0  0  0
  4  9  1  0  0  0  0
  5 43  1  0  0  0  0
  5  6  1  0  0  0  0
  6 44  1  0  0  0  0
  6  7  2  0  0  0  0
  7  8  1  0  0  0  0
  8 45  1  0  0  0  0
  9 10  2  0  0  0  0
  9 11  1  0  0  0  0
 10 47  1  0  0  0  0
 10 46  1  0  0  0  0
 11 67  1  0  0  0  0
 11 48  1  0  0  0  0
 12 40  1  0  0  0  0
 12 13  2  0  0  0  0
 12 17  1  0  0  0  0
 13 14  1  0  0  0  0
 13 18  1  0  0  0  0
 14 41  1  0  0  0  0
 14 15  2  0  0  0  0
 15 16  1  0  0  0  0
 15 27  1  0  0  0  0
 16 17  2  0  0  0  0
 18 19  1  0  0  0  0
 18 23  1  0  0  0  0
 19 50  1  0  0  0  0
 19 49  1  0  0  0  0
 19 20  1  0  0  0  0
 20 51  1  0  0  0  0
 20 21  1  0  0  0  0
 20 24  1  0  0  0  0
 21 53  1  0  0  0  0
 21 52  1  0  0  0  0
 21 22  1  0  0  0  0
 22 55  1  0  0  0  0
 22 54  1  0  0  0  0
 22 23  1  0  0  0  0
 23 57  1  0  0  0  0
 23 56  1  0  0  0  0
 24 25  1  0  0  0  0
 24 26  2  0  0  0  0
 27 28  1  0  0  0  0
 28 29  2  0  0  0  0
 28 33  1  0  0  0  0
 29 58  1  0  0  0  0
 29 30  1  0  0  0  0
 30 59  1  0  0  0  0
 30 31  2  0  0  0  0
 31 60  1  0  0  0  0
 31 32  1  0  0  0  0
 32 33  2  0  0  0  0
 32 34  1  0  0  0  0
 33 61  1  0  0  0  0
 34 35  1  0  0  0  0
 34 37  2  0  0  0  0
 35 36  1  0  0  0  0
 35 38  1  0  0  0  0
 36 64  1  0  0  0  0
 36 63  1  0  0  0  0
 36 62  1  0  0  0  0
 37 39  1  0  0  0  0
 38 65  1  0  0  0  0
 38 39  2  0  0  0  0
 39 66  1  0  0  0  0
M  END
