
  ACD/Labs06062111443D

 66 70  0  0  0  0  0  0  0  0  2 V2000
   13.5952  -12.4018   -3.3823 C   0  0  0  0  0  0  0  0  0  0  0  0
   13.5941  -12.9600   -4.6442 N   0  0  0  0  0  0  0  0  0  0  0  0
   14.7669  -12.3735   -2.6473 N   0  0  0  0  0  0  0  0  0  0  0  0
   14.8325  -11.9346   -1.2401 C   0  0  0  0  0  0  0  0  0  0  0  0
   16.0258  -10.9908   -1.0413 C   0  0  0  0  0  0  0  0  0  0  0  0
   17.3064  -11.7278   -1.4478 C   0  0  0  0  0  0  0  0  0  0  0  0
   17.2119  -12.1505   -2.9194 C   0  0  0  0  0  0  0  0  0  0  0  0
   15.9892  -13.0602   -3.1025 C   0  0  0  0  0  0  0  0  0  0  0  0
   18.4634  -10.9206   -1.2262 O   0  0  0  0  0  0  0  0  0  0  0  0
   19.7117  -11.4669   -1.0769 C   0  0  0  0  0  0  0  0  0  0  0  0
   19.8953  -12.8411   -1.2534 C   0  0  0  0  0  0  0  0  0  0  0  0
   21.1444  -13.4318   -1.1083 C   0  0  0  0  0  0  0  0  0  0  0  0
   22.1994  -12.6055   -0.7831 C   0  0  0  0  0  0  0  0  0  0  0  0
   22.0306  -11.2592   -0.6106 C   0  0  0  0  0  0  0  0  0  0  0  0
   20.7937  -10.6503   -0.7491 C   0  0  0  0  0  0  0  0  0  0  0  0
   23.2289  -10.7460   -0.3152 N   0  0  0  0  0  0  0  0  0  0  0  0
   24.1061  -11.7677   -0.2991 C   0  0  0  0  0  0  0  0  0  0  0  0
   25.5821  -11.6405    0.0000 C   0  0  0  0  0  0  0  0  0  0  0  0
   23.5447   -9.3313   -0.0554 C   0  0  0  0  0  0  0  0  0  0  0  0
   23.9992   -8.6789   -1.3425 C   0  0  0  0  0  0  0  0  0  0  0  0
   25.3479   -8.5949   -1.6568 C   0  0  0  0  0  0  0  0  0  0  0  0
   25.7503   -7.9958   -2.8422 C   0  0  0  0  0  0  0  0  0  0  0  0
   24.8012   -7.4808   -3.7119 C   0  0  0  0  0  0  0  0  0  0  0  0
   25.1905   -6.8834   -4.9005 C   0  0  0  0  0  0  0  0  0  0  0  0
   24.2322   -6.3735   -5.7641 C   0  0  0  0  0  0  0  0  0  0  0  0
   22.8838   -6.4575   -5.4417 C   0  0  0  0  0  0  0  0  0  0  0  0
   22.4966   -7.0517   -4.2541 C   0  0  0  0  0  0  0  0  0  0  0  0
   23.4506   -7.5632   -3.3926 C   0  0  0  0  0  0  0  0  0  0  0  0
   23.0533   -8.1639   -2.2108 C   0  0  0  0  0  0  0  0  0  0  0  0
   21.8393   -5.9246   -6.3332 C   0  0  0  0  0  0  0  0  0  0  0  0
   12.4591  -11.8952   -2.8796 N   0  3  0  0  0  0  0  0  0  0  0  0
   22.1540   -5.3779   -7.5160 N   0  3  0  0  0  0  0  0  0  0  0  0
   20.5180   -5.9943   -5.9394 N   0  0  0  0  0  0  0  0  0  0  0  0
   23.4856  -12.9295   -0.5874 N   0  3  0  0  0  0  0  0  0  0  0  0
   12.7039  -12.9867   -5.2079 H   0  0  0  0  0  0  0  0  0  0  0  0
   14.4834  -13.3596   -5.0445 H   0  0  0  0  0  0  0  0  0  0  0  0
   13.8851  -11.4116   -0.9887 H   0  0  0  0  0  0  0  0  0  0  0  0
   14.9430  -12.8323   -0.5949 H   0  0  0  0  0  0  0  0  0  0  0  0
   15.8980  -10.0871   -1.6747 H   0  0  0  0  0  0  0  0  0  0  0  0
   16.0912  -10.6895    0.0260 H   0  0  0  0  0  0  0  0  0  0  0  0
   17.4771  -12.6051   -0.7879 H   0  0  0  0  0  0  0  0  0  0  0  0
   17.1038  -11.2485   -3.5591 H   0  0  0  0  0  0  0  0  0  0  0  0
   18.1324  -12.7016   -3.2078 H   0  0  0  0  0  0  0  0  0  0  0  0
   16.1125  -13.9893   -2.5060 H   0  0  0  0  0  0  0  0  0  0  0  0
   15.8658  -13.3218   -4.1752 H   0  0  0  0  0  0  0  0  0  0  0  0
   19.0257  -13.4808   -1.5159 H   0  0  0  0  0  0  0  0  0  0  0  0
   21.2939  -14.5239   -1.2471 H   0  0  0  0  0  0  0  0  0  0  0  0
   20.6749   -9.5553   -0.6036 H   0  0  0  0  0  0  0  0  0  0  0  0
   26.1499  -11.5916   -0.9537 H   0  0  0  0  0  0  0  0  0  0  0  0
   25.7623  -10.7140    0.5861 H   0  0  0  0  0  0  0  0  0  0  0  0
   25.9181  -12.5226    0.5861 H   0  0  0  0  0  0  0  0  0  0  0  0
   22.6350   -8.8227    0.3295 H   0  0  0  0  0  0  0  0  0  0  0  0
   24.3514   -9.2750    0.7064 H   0  0  0  0  0  0  0  0  0  0  0  0
   26.1067   -9.0081   -0.9584 H   0  0  0  0  0  0  0  0  0  0  0  0
   26.8302   -7.9286   -3.0944 H   0  0  0  0  0  0  0  0  0  0  0  0
   26.2684   -6.8135   -5.1605 H   0  0  0  0  0  0  0  0  0  0  0  0
   24.5457   -5.8962   -6.7171 H   0  0  0  0  0  0  0  0  0  0  0  0
   21.4189   -7.1182   -3.9922 H   0  0  0  0  0  0  0  0  0  0  0  0
   21.9735   -8.2329   -1.9587 H   0  0  0  0  0  0  0  0  0  0  0  0
   12.4529  -11.4468   -1.8631 H   0  0  0  0  0  0  0  0  0  0  0  0
   11.5247  -11.9239   -3.4798 H   0  0  0  0  0  0  0  0  0  0  0  0
   21.3526   -4.9826   -8.1760 H   0  0  0  0  0  0  0  0  0  0  0  0
   23.2163   -5.3201   -7.8362 H   0  0  0  0  0  0  0  0  0  0  0  0
   19.7602   -5.6182   -6.5681 H   0  0  0  0  0  0  0  0  0  0  0  0
   20.2669   -6.4235   -5.0101 H   0  0  0  0  0  0  0  0  0  0  0  0
   23.9158  -13.8898   -0.6474 H   0  0  0  0  0  0  0  0  0  0  0  0
  1  2  1  0  0  0  0
  1  3  1  0  0  0  0
  1 31  2  0  0  0  0
  3  8  1  0  0  0  0
  3  4  1  0  0  0  0
  4  5  1  0  0  0  0
  5  6  1  0  0  0  0
  6  7  1  0  0  0  0
  6  9  1  0  0  0  0
  7  8  1  0  0  0  0
  9 10  1  0  0  0  0
 10 15  2  0  0  0  0
 10 11  1  0  0  0  0
 11 12  2  0  0  0  0
 12 13  1  0  0  0  0
 13 14  2  0  0  0  0
 13 34  1  0  0  0  0
 14 15  1  0  0  0  0
 14 16  1  0  0  0  0
 16 17  1  0  0  0  0
 16 19  1  0  0  0  0
 17 18  1  0  0  0  0
 17 34  2  0  0  0  0
 19 20  1  0  0  0  0
 20 29  2  0  0  0  0
 20 21  1  0  0  0  0
 21 22  2  0  0  0  0
 22 23  1  0  0  0  0
 23 28  2  0  0  0  0
 23 24  1  0  0  0  0
 24 25  2  0  0  0  0
 25 26  1  0  0  0  0
 26 27  2  0  0  0  0
 26 30  1  0  0  0  0
 27 28  1  0  0  0  0
 28 29  1  0  0  0  0
 30 32  2  0  0  0  0
 30 33  1  0  0  0  0
 35  2  1  0  0  0  0
 36  2  1  0  0  0  0
 37  4  1  0  0  0  0
 38  4  1  0  0  0  0
 39  5  1  0  0  0  0
 40  5  1  0  0  0  0
 41  6  1  0  0  0  0
 42  7  1  0  0  0  0
 43  7  1  0  0  0  0
 44  8  1  0  0  0  0
 45  8  1  0  0  0  0
 46 11  1  0  0  0  0
 47 12  1  0  0  0  0
 48 15  1  0  0  0  0
 49 18  1  0  0  0  0
 50 18  1  0  0  0  0
 51 18  1  0  0  0  0
 52 19  1  0  0  0  0
 53 19  1  0  0  0  0
 54 21  1  0  0  0  0
 55 22  1  0  0  0  0
 56 24  1  0  0  0  0
 57 25  1  0  0  0  0
 58 27  1  0  0  0  0
 59 29  1  0  0  0  0
 60 31  1  0  0  0  0
 61 31  1  0  0  0  0
 62 32  1  0  0  0  0
 63 32  1  0  0  0  0
 64 33  1  0  0  0  0
 65 33  1  0  0  0  0
 66 34  1  0  0  0  0
M  CHG  3  31   1  32   1  34   1
M  END
