
  ACD/Labs07171520393D

 50 53  0  0  0  0  0  0  0  0  2 V2000
   18.4600   -6.4724   -4.5568 C   0  0  0  0  0  0  0  0  0  0  0  0
   18.4766   -7.1408   -3.3654 C   0  0  0  0  0  0  0  0  0  0  0  0
   19.6661   -7.2397   -2.6391 C   0  0  0  0  0  0  0  0  0  0  0  0
   20.8361   -6.6480   -3.1448 C   0  0  0  0  0  0  0  0  0  0  0  0
   20.8000   -5.9726   -4.3570 C   0  0  0  0  0  0  0  0  0  0  0  0
   19.6151   -5.8884   -5.0568 C   0  0  0  0  0  0  0  0  0  0  0  0
   19.5739   -5.1563   -6.3734 C   0  0  0  0  0  0  0  0  0  0  0  0
   21.8267   -6.9115   -2.2200 N   0  0  0  0  0  0  0  0  0  0  0  0
   22.7837   -6.6276   -2.2794 H   0  0  0  0  0  0  0  0  0  0  0  0
   21.2595   -7.6289   -1.2129 C   0  0  0  0  0  0  0  0  0  0  0  0
   19.9974   -7.8259   -1.4599 N   0  0  0  0  0  0  0  0  0  0  0  0
   21.9884   -8.1281    0.0080 C   0  0  0  0  0  0  0  0  0  0  0  0
   21.2830   -7.6421    1.2479 C   0  0  0  0  0  0  0  0  0  0  0  0
   20.8350   -8.4413    2.2535 N   0  0  0  0  0  0  0  0  0  0  0  0
   20.9144   -9.4371    2.2992 H   0  0  0  0  0  0  0  0  0  0  0  0
   20.2505   -7.6228    3.1991 C   0  0  0  0  0  0  0  0  0  0  0  0
   19.6289   -7.8465    4.4200 C   0  0  0  0  0  0  0  0  0  0  0  0
   19.1380   -6.7795    5.1420 C   0  0  0  0  0  0  0  0  0  0  0  0
   19.2598   -5.4857    4.6556 C   0  0  0  0  0  0  0  0  0  0  0  0
   19.8681   -5.2465    3.4560 C   0  0  0  0  0  0  0  0  0  0  0  0
   20.3740   -6.3122    2.7072 C   0  0  0  0  0  0  0  0  0  0  0  0
   18.4637   -7.0201    6.4681 C   0  0  0  0  0  0  0  0  0  0  0  0
   17.5386   -6.3982   -5.1153 H   0  0  0  0  0  0  0  0  0  0  0  0
   17.5719   -7.5923   -2.9858 H   0  0  0  0  0  0  0  0  0  0  0  0
   21.6961   -5.5157   -4.7504 H   0  0  0  0  0  0  0  0  0  0  0  0
   19.7921   -5.8525   -7.1833 H   0  0  0  0  0  0  0  0  0  0  0  0
   17.5381   -5.3021   -6.6430 H   0  0  0  0  0  0  0  0  0  0  0  0
   18.0118   -3.9293   -5.8325 H   0  0  0  0  0  0  0  0  0  0  0  0
   21.4956   -4.4465   -6.1695 H   0  0  0  0  0  0  0  0  0  0  0  0
   20.5681   -3.5759   -7.2407 H   0  0  0  0  0  0  0  0  0  0  0  0
   22.0032   -9.2180    0.0020 H   0  0  0  0  0  0  0  0  0  0  0  0
   23.0110   -7.7508    0.0003 H   0  0  0  0  0  0  0  0  0  0  0  0
   19.5310   -8.8516    4.8028 H   0  0  0  0  0  0  0  0  0  0  0  0
   18.8701   -4.6593    5.2315 H   0  0  0  0  0  0  0  0  0  0  0  0
   19.9582   -4.2355    3.0871 H   0  0  0  0  0  0  0  0  0  0  0  0
   19.2063   -6.9838    7.2652 H   0  0  0  0  0  0  0  0  0  0  0  0
   16.9821   -6.1222    7.5803 H   0  0  0  0  0  0  0  0  0  0  0  0
   17.8558   -5.0610    6.6442 H   0  0  0  0  0  0  0  0  0  0  0  0
   17.1272   -8.3996    5.7270 H   0  0  0  0  0  0  0  0  0  0  0  0
   18.5054   -9.0759    6.3666 H   0  0  0  0  0  0  0  0  0  0  0  0
   18.2414   -4.5669   -6.5931 N   0  3  0  0  0  0  0  0  0  0  0  0
   18.2446   -4.0457   -7.4777 H   0  0  0  0  0  0  0  0  0  0  0  0
   20.5671   -4.0680   -6.3488 N   0  3  0  0  0  0  0  0  0  0  0  0
   20.3248   -3.4068   -5.6016 H   0  0  0  0  0  0  0  0  0  0  0  0
   17.4335   -5.9874    6.6771 N   0  3  0  0  0  0  0  0  0  0  0  0
   16.7272   -6.0602    5.9354 H   0  0  0  0  0  0  0  0  0  0  0  0
   17.8098   -8.3406    6.4808 N   0  3  0  0  0  0  0  0  0  0  0  0
   17.3292   -8.4706    7.3788 H   0  0  0  0  0  0  0  0  0  0  0  0
   21.0190   -6.3956    1.5145 N   0  3  0  0  0  0  0  0  0  0  0  0
   21.2611   -5.5978    0.9153 H   0  0  0  0  0  0  0  0  0  0  0  0
  1  6  2  0  0  0  0
  1  2  1  0  0  0  0
  1 23  1  0  0  0  0
  2  3  2  0  0  0  0
  2 24  1  0  0  0  0
  3 11  1  0  0  0  0
  3  4  1  0  0  0  0
  4  5  2  0  0  0  0
  4  8  1  0  0  0  0
  5  6  1  0  0  0  0
  5 25  1  0  0  0  0
  6  7  1  0  0  0  0
  7 26  1  0  0  0  0
  7 41  1  0  0  0  0
  7 43  1  0  0  0  0
  8  9  1  0  0  0  0
  8 10  1  0  0  0  0
 10 11  2  0  0  0  0
 10 12  1  0  0  0  0
 12 13  1  0  0  0  0
 12 31  1  0  0  0  0
 12 32  1  0  0  0  0
 13 14  1  0  0  0  0
 13 49  2  0  0  0  0
 14 15  1  0  0  0  0
 14 16  1  0  0  0  0
 16 21  2  0  0  0  0
 16 17  1  0  0  0  0
 17 18  2  0  0  0  0
 17 33  1  0  0  0  0
 18 19  1  0  0  0  0
 18 22  1  0  0  0  0
 19 20  2  0  0  0  0
 19 34  1  0  0  0  0
 20 21  1  0  0  0  0
 20 35  1  0  0  0  0
 21 49  1  0  0  0  0
 22 36  1  0  0  0  0
 22 45  1  0  0  0  0
 22 47  1  0  0  0  0
 27 41  1  0  0  0  0
 28 41  1  0  0  0  0
 29 43  1  0  0  0  0
 30 43  1  0  0  0  0
 37 45  1  0  0  0  0
 38 45  1  0  0  0  0
 39 47  1  0  0  0  0
 40 47  1  0  0  0  0
 41 42  1  0  0  0  0
 43 44  1  0  0  0  0
 45 46  1  0  0  0  0
 47 48  1  0  0  0  0
 49 50  1  0  0  0  0
M  CHG  5  41   1  43   1  45   1  47   1  49   1
M  END
