
  ACD/Labs06062111523D

 44 47  0  0  0  0  0  0  0  0  2 V2000
   15.5886   -7.3642   -5.4307 C   0  0  0  0  0  0  0  0  0  0  0  0
   16.3247   -6.4826   -4.6490 C   0  0  0  0  0  0  0  0  0  0  0  0
   16.7310   -6.9276   -3.4067 C   0  0  0  0  0  0  0  0  0  0  0  0
   16.4278   -8.1795   -2.9524 C   0  0  0  0  0  0  0  0  0  0  0  0
   15.6947   -9.0680   -3.7125 C   0  0  0  0  0  0  0  0  0  0  0  0
   15.2758   -8.6420   -4.9708 C   0  0  0  0  0  0  0  0  0  0  0  0
   14.4917   -9.5317   -5.8391 C   0  0  0  0  0  0  0  0  0  0  0  0
   16.9478   -8.3388   -1.7308 N   0  0  0  0  0  0  0  0  0  0  0  0
   17.5636   -7.1691   -1.4629 C   0  0  0  0  0  0  0  0  0  0  0  0
   17.4432   -6.2881   -2.4760 N   0  0  0  0  0  0  0  0  0  0  0  0
   18.3068   -6.8733   -0.1876 C   0  0  0  0  0  0  0  0  0  0  0  0
   19.7263   -6.5261   -0.5586 C   0  0  0  0  0  0  0  0  0  0  0  0
   20.3181   -5.3482   -0.2743 N   0  0  0  0  0  0  0  0  0  0  0  0
   21.5531   -5.4540   -0.7756 C   0  0  0  0  0  0  0  0  0  0  0  0
   22.5835   -4.5355   -0.7607 C   0  0  0  0  0  0  0  0  0  0  0  0
   23.7804   -4.9069   -1.3644 C   0  0  0  0  0  0  0  0  0  0  0  0
   23.9213   -6.1627   -1.9576 C   0  0  0  0  0  0  0  0  0  0  0  0
   22.8731   -7.0746   -1.9601 C   0  0  0  0  0  0  0  0  0  0  0  0
   21.6957   -6.6834   -1.3535 C   0  0  0  0  0  0  0  0  0  0  0  0
   24.9022   -3.9583   -1.3672 C   0  0  0  0  0  0  0  0  0  0  0  0
   14.0373   -9.0595   -7.0537 N   0  0  0  0  0  0  0  0  0  0  0  0
   14.2123  -10.7881   -5.4621 N   0  3  0  0  0  0  0  0  0  0  0  0
   26.0866   -4.2995   -1.8967 N   0  3  0  0  0  0  0  0  0  0  0  0
   24.7295   -2.7056   -0.8168 N   0  0  0  0  0  0  0  0  0  0  0  0
   20.5528   -7.3610   -1.2206 N   0  3  0  0  0  0  0  0  0  0  0  0
   15.2454   -7.0429   -6.4373 H   0  0  0  0  0  0  0  0  0  0  0  0
   16.5786   -5.4609   -5.0039 H   0  0  0  0  0  0  0  0  0  0  0  0
   15.4523  -10.0819   -3.3284 H   0  0  0  0  0  0  0  0  0  0  0  0
   16.8863   -9.1936   -1.1173 H   0  0  0  0  0  0  0  0  0  0  0  0
   17.8315   -6.0173    0.3374 H   0  0  0  0  0  0  0  0  0  0  0  0
   18.2949   -7.7664    0.4731 H   0  0  0  0  0  0  0  0  0  0  0  0
   19.9040   -4.5215    0.2316 H   0  0  0  0  0  0  0  0  0  0  0  0
   22.4550   -3.5404   -0.2837 H   0  0  0  0  0  0  0  0  0  0  0  0
   24.8845   -6.4414   -2.4361 H   0  0  0  0  0  0  0  0  0  0  0  0
   22.9725   -8.0771   -2.4286 H   0  0  0  0  0  0  0  0  0  0  0  0
   13.4711   -9.6861   -7.6843 H   0  0  0  0  0  0  0  0  0  0  0  0
   14.2564   -8.0722   -7.3507 H   0  0  0  0  0  0  0  0  0  0  0  0
   13.6154  -11.4479   -6.1273 H   0  0  0  0  0  0  0  0  0  0  0  0
   14.5777  -11.1690   -4.4845 H   0  0  0  0  0  0  0  0  0  0  0  0
   26.9272   -3.5732   -1.8916 H   0  0  0  0  0  0  0  0  0  0  0  0
   26.2268   -5.3083   -2.3403 H   0  0  0  0  0  0  0  0  0  0  0  0
   25.5276   -2.0172   -0.8124 H   0  0  0  0  0  0  0  0  0  0  0  0
   23.7993   -2.4366   -0.4005 H   0  0  0  0  0  0  0  0  0  0  0  0
   20.3487   -8.3370   -1.5619 H   0  0  0  0  0  0  0  0  0  0  0  0
  1  6  2  0  0  0  0
  1  2  1  0  0  0  0
  2  3  2  0  0  0  0
  3 10  1  0  0  0  0
  3  4  1  0  0  0  0
  4  5  2  0  0  0  0
  4  8  1  0  0  0  0
  5  6  1  0  0  0  0
  6  7  1  0  0  0  0
  7 21  1  0  0  0  0
  7 22  2  0  0  0  0
  8  9  1  0  0  0  0
  9 10  2  0  0  0  0
  9 11  1  0  0  0  0
 11 12  1  0  0  0  0
 12 13  1  0  0  0  0
 12 25  2  0  0  0  0
 13 14  1  0  0  0  0
 14 19  2  0  0  0  0
 14 15  1  0  0  0  0
 15 16  2  0  0  0  0
 16 17  1  0  0  0  0
 16 20  1  0  0  0  0
 17 18  2  0  0  0  0
 18 19  1  0  0  0  0
 19 25  1  0  0  0  0
 20 23  2  0  0  0  0
 20 24  1  0  0  0  0
 26  1  1  0  0  0  0
 27  2  1  0  0  0  0
 28  5  1  0  0  0  0
 29  8  1  0  0  0  0
 30 11  1  0  0  0  0
 31 11  1  0  0  0  0
 32 13  1  0  0  0  0
 33 15  1  0  0  0  0
 34 17  1  0  0  0  0
 35 18  1  0  0  0  0
 36 21  1  0  0  0  0
 37 21  1  0  0  0  0
 38 22  1  0  0  0  0
 39 22  1  0  0  0  0
 40 23  1  0  0  0  0
 41 23  1  0  0  0  0
 42 24  1  0  0  0  0
 43 24  1  0  0  0  0
 44 25  1  0  0  0  0
M  CHG  3  22   1  23   1  25   1
M  END
