
  ACD/Labs06062111523D

 69 72  0  0  0  0  0  0  0  0  2 V2000
   17.5264   -3.9165   -1.3130 C   0  0  0  0  0  0  0  0  0  0  0  0
   18.3349   -3.8049   -2.4330 C   0  0  0  0  0  0  0  0  0  0  0  0
   18.5594   -4.9087   -3.2404 C   0  0  0  0  0  0  0  0  0  0  0  0
   17.9750   -6.1254   -2.9272 C   0  0  0  0  0  0  0  0  0  0  0  0
   18.1975   -7.2297   -3.7328 C   0  0  0  0  0  0  0  0  0  0  0  0
   17.6133   -8.4462   -3.4181 C   0  0  0  0  0  0  0  0  0  0  0  0
   16.8054   -8.5609   -2.2973 C   0  0  0  0  0  0  0  0  0  0  0  0
   16.5818   -7.4563   -1.4889 C   0  0  0  0  0  0  0  0  0  0  0  0
   17.1644   -6.2388   -1.8026 C   0  0  0  0  0  0  0  0  0  0  0  0
   16.9407   -5.1337   -0.9986 C   0  0  0  0  0  0  0  0  0  0  0  0
   17.8932   -9.8343   -4.4464 S   0  0  0  0  0  0  0  0  0  0  0  0
   16.7521  -10.7128   -4.3886 O   0  0  0  0  0  0  0  0  0  0  0  0
   18.0770   -9.3740   -5.7994 O   0  0  0  0  0  0  0  0  0  0  0  0
   19.2357  -10.6560   -3.9856 N   0  0  0  0  0  0  0  0  0  0  0  0
   18.9521  -11.2793   -2.6839 C   0  0  0  0  0  0  0  0  0  0  0  0
   20.0614  -12.2686   -2.4211 C   0  0  0  0  0  0  0  0  0  0  0  0
   20.9414  -12.4066   -3.2384 O   0  0  0  0  0  0  0  0  0  0  0  0
   20.0910  -13.0127   -1.2601 N   0  0  0  0  0  0  0  0  0  0  0  0
   21.1831  -13.9818   -1.0769 C   0  0  0  0  0  0  0  0  0  0  0  0
   20.7821  -15.0107   -0.0186 C   0  0  0  0  0  0  0  0  0  0  0  0
   19.6509  -15.7905   -0.6323 C   0  0  0  0  0  0  0  0  0  0  0  0
   18.3465  -15.3408   -0.5077 C   0  0  0  0  0  0  0  0  0  0  0  0
   17.3142  -16.0524   -1.0992 C   0  0  0  0  0  0  0  0  0  0  0  0
   17.5841  -17.2109   -1.8114 C   0  0  0  0  0  0  0  0  0  0  0  0
   18.8911  -17.6613   -1.9273 C   0  0  0  0  0  0  0  0  0  0  0  0
   19.9235  -16.9494   -1.3397 C   0  0  0  0  0  0  0  0  0  0  0  0
   16.4710  -17.9502   -2.4421 C   0  0  0  0  0  0  0  0  0  0  0  0
   22.4317  -13.2632   -0.6303 C   0  0  0  0  0  0  0  0  0  0  0  0
   22.3482  -12.2340    0.0000 O   0  0  0  0  0  0  0  0  0  0  0  0
   23.6740  -13.7850   -0.9391 N   0  0  0  0  0  0  0  0  0  0  0  0
   23.8789  -15.0692   -1.6358 C   0  0  0  0  0  0  0  0  0  0  0  0
   24.8528  -14.8791   -2.8058 C   0  0  0  0  0  0  0  0  0  0  0  0
   26.1745  -14.3152   -2.2750 C   0  0  0  0  0  0  0  0  0  0  0  0
   25.9142  -12.9771   -1.5743 C   0  0  0  0  0  0  0  0  0  0  0  0
   24.9196  -13.1916   -0.4249 C   0  0  0  0  0  0  0  0  0  0  0  0
   15.1740  -17.6621   -2.0718 N   0  0  0  0  0  0  0  0  0  0  0  0
   16.7017  -18.8897   -3.3722 N   0  3  0  0  0  0  0  0  0  0  0  0
   21.3796  -14.5023   -2.0450 H   0  0  0  0  0  0  0  0  0  0  0  0
   17.3477   -3.0304   -0.6672 H   0  0  0  0  0  0  0  0  0  0  0  0
   18.8037   -2.8294   -2.6840 H   0  0  0  0  0  0  0  0  0  0  0  0
   19.2076   -4.8182   -4.1382 H   0  0  0  0  0  0  0  0  0  0  0  0
   18.8446   -7.1397   -4.6315 H   0  0  0  0  0  0  0  0  0  0  0  0
   16.3376   -9.5371   -2.0470 H   0  0  0  0  0  0  0  0  0  0  0  0
   15.9355   -7.5468   -0.5898 H   0  0  0  0  0  0  0  0  0  0  0  0
   16.2916   -5.2235   -0.1015 H   0  0  0  0  0  0  0  0  0  0  0  0
   19.4799  -11.4249   -4.6640 H   0  0  0  0  0  0  0  0  0  0  0  0
   18.9292  -10.4987   -1.8937 H   0  0  0  0  0  0  0  0  0  0  0  0
   17.9692  -11.7956   -2.7238 H   0  0  0  0  0  0  0  0  0  0  0  0
   19.3247  -12.8505   -0.5548 H   0  0  0  0  0  0  0  0  0  0  0  0
   21.6317  -15.6872    0.2157 H   0  0  0  0  0  0  0  0  0  0  0  0
   20.4412  -14.5077    0.9115 H   0  0  0  0  0  0  0  0  0  0  0  0
   18.1292  -14.4134    0.0641 H   0  0  0  0  0  0  0  0  0  0  0  0
   16.2674  -15.6931   -1.0021 H   0  0  0  0  0  0  0  0  0  0  0  0
   19.1112  -18.5929   -2.4912 H   0  0  0  0  0  0  0  0  0  0  0  0
   20.9707  -17.3080   -1.4359 H   0  0  0  0  0  0  0  0  0  0  0  0
   24.2908  -15.8031   -0.9105 H   0  0  0  0  0  0  0  0  0  0  0  0
   22.8966  -15.4290   -2.0101 H   0  0  0  0  0  0  0  0  0  0  0  0
   25.0382  -15.8576   -3.2982 H   0  0  0  0  0  0  0  0  0  0  0  0
   24.4162  -14.1705   -3.5417 H   0  0  0  0  0  0  0  0  0  0  0  0
   26.6187  -15.0319   -1.5515 H   0  0  0  0  0  0  0  0  0  0  0  0
   26.8770  -14.1595   -3.1215 H   0  0  0  0  0  0  0  0  0  0  0  0
   26.8692  -12.5787   -1.1699 H   0  0  0  0  0  0  0  0  0  0  0  0
   25.4896  -12.2538   -2.3030 H   0  0  0  0  0  0  0  0  0  0  0  0
   24.6744  -12.2204    0.0556 H   0  0  0  0  0  0  0  0  0  0  0  0
   25.3516  -13.8811    0.3316 H   0  0  0  0  0  0  0  0  0  0  0  0
   14.3713  -18.1787   -2.5187 H   0  0  0  0  0  0  0  0  0  0  0  0
   14.9855  -16.9255   -1.3420 H   0  0  0  0  0  0  0  0  0  0  0  0
   15.8506  -19.4301   -3.8390 H   0  0  0  0  0  0  0  0  0  0  0  0
   17.7438  -19.1271   -3.6755 H   0  0  0  0  0  0  0  0  0  0  0  0
  1 10  2  0  0  0  0
  1  2  1  0  0  0  0
  2  3  2  0  0  0  0
  3  4  1  0  0  0  0
  4  9  2  0  0  0  0
  4  5  1  0  0  0  0
  5  6  2  0  0  0  0
  6  7  1  0  0  0  0
  6 11  1  0  0  0  0
  7  8  2  0  0  0  0
  8  9  1  0  0  0  0
  9 10  1  0  0  0  0
 11 12  2  0  0  0  0
 11 13  2  0  0  0  0
 11 14  1  0  0  0  0
 14 15  1  0  0  0  0
 15 16  1  0  0  0  0
 16 17  2  0  0  0  0
 16 18  1  0  0  0  0
 18 19  1  0  0  0  0
 19 20  1  0  0  0  0
 19 28  1  0  0  0  0
 20 21  1  0  0  0  0
 21 26  2  0  0  0  0
 21 22  1  0  0  0  0
 22 23  2  0  0  0  0
 23 24  1  0  0  0  0
 24 25  2  0  0  0  0
 24 27  1  0  0  0  0
 25 26  1  0  0  0  0
 27 36  1  0  0  0  0
 27 37  2  0  0  0  0
 28 29  2  0  0  0  0
 28 30  1  0  0  0  0
 30 35  1  0  0  0  0
 30 31  1  0  0  0  0
 31 32  1  0  0  0  0
 32 33  1  0  0  0  0
 33 34  1  0  0  0  0
 34 35  1  0  0  0  0
 38 19  1  0  0  0  0
 39  1  1  0  0  0  0
 40  2  1  0  0  0  0
 41  3  1  0  0  0  0
 42  5  1  0  0  0  0
 43  7  1  0  0  0  0
 44  8  1  0  0  0  0
 45 10  1  0  0  0  0
 46 14  1  0  0  0  0
 47 15  1  0  0  0  0
 48 15  1  0  0  0  0
 49 18  1  0  0  0  0
 50 20  1  0  0  0  0
 51 20  1  0  0  0  0
 52 22  1  0  0  0  0
 53 23  1  0  0  0  0
 54 25  1  0  0  0  0
 55 26  1  0  0  0  0
 56 31  1  0  0  0  0
 57 31  1  0  0  0  0
 58 32  1  0  0  0  0
 59 32  1  0  0  0  0
 60 33  1  0  0  0  0
 61 33  1  0  0  0  0
 62 34  1  0  0  0  0
 63 34  1  0  0  0  0
 64 35  1  0  0  0  0
 65 35  1  0  0  0  0
 66 36  1  0  0  0  0
 67 36  1  0  0  0  0
 68 37  1  0  0  0  0
 69 37  1  0  0  0  0
M  CHG  1  37   1
M  END
