
  ACD/Labs07171520393D

 72 75  0  0  0  0  0  0  0  0  2 V2000
   17.8182  -18.0753    1.5330 C   0  0  0  0  0  0  0  0  0  0  0  0
   16.5202  -17.5754    1.4452 C   0  0  0  0  0  0  0  0  0  0  0  0
   16.2924  -16.2505    1.2337 C   0  0  0  0  0  0  0  0  0  0  0  0
   17.3801  -15.3720    1.0914 C   0  0  0  0  0  0  0  0  0  0  0  0
   17.1844  -13.9985    0.8669 C   0  0  0  0  0  0  0  0  0  0  0  0
   18.2618  -13.1778    0.7336 C   0  0  0  0  0  0  0  0  0  0  0  0
   19.5599  -13.6786    0.8157 C   0  0  0  0  0  0  0  0  0  0  0  0
   19.7877  -15.0028    1.0321 C   0  0  0  0  0  0  0  0  0  0  0  0
   18.7000  -15.8812    1.1753 C   0  0  0  0  0  0  0  0  0  0  0  0
   18.8957  -17.2546    1.3997 C   0  0  0  0  0  0  0  0  0  0  0  0
   18.0119  -11.4565    0.4523 S   0  0  0  0  0  0  0  0  0  0  0  0
   19.1874  -10.9741   -0.1839 O   0  0  0  0  0  0  0  0  0  0  0  0
   16.7219  -11.3229   -0.1285 O   0  0  0  0  0  0  0  0  0  0  0  0
   17.9415  -10.7232    1.9354 N   0  0  0  0  0  0  0  0  0  0  0  0
   19.1211  -10.7126    2.8041 C   0  0  0  0  0  0  0  0  0  0  0  0
   18.9290   -9.6960    3.8998 C   0  0  0  0  0  0  0  0  0  0  0  0
   17.9073   -9.0445    3.9502 O   0  0  0  0  0  0  0  0  0  0  0  0
   19.8925   -9.5108    4.8238 N   0  0  0  0  0  0  0  0  0  0  0  0
   19.7057   -8.5226    5.8890 C   0  0  0  0  0  0  0  0  0  0  0  0
   19.1492   -7.6699    5.5000 H   0  0  0  0  0  0  0  0  0  0  0  0
   21.0714   -8.0529    6.3942 C   0  0  0  0  0  0  0  0  0  0  0  0
   21.7801   -7.2990    5.2986 C   0  0  0  0  0  0  0  0  0  0  0  0
   22.6027   -7.9735    4.4158 C   0  0  0  0  0  0  0  0  0  0  0  0
   23.2494   -7.2826    3.4082 C   0  0  0  0  0  0  0  0  0  0  0  0
   23.0806   -5.9158    3.2888 C   0  0  0  0  0  0  0  0  0  0  0  0
   22.2621   -5.2405    4.1747 C   0  0  0  0  0  0  0  0  0  0  0  0
   21.6120   -5.9320    5.1797 C   0  0  0  0  0  0  0  0  0  0  0  0
   23.7885   -5.1621    2.1925 C   0  0  0  0  0  0  0  0  0  0  0  0
   18.9377   -9.1476    7.0251 C   0  0  0  0  0  0  0  0  0  0  0  0
   18.9330  -10.3525    7.1634 O   0  0  0  0  0  0  0  0  0  0  0  0
   18.2560   -8.3676    7.8873 N   0  0  0  0  0  0  0  0  0  0  0  0
   18.1696   -6.9162    7.6761 C   0  0  0  0  0  0  0  0  0  0  0  0
   16.6885   -6.5083    7.6869 C   0  0  0  0  0  0  0  0  0  0  0  0
   16.0412   -6.9937    8.9859 C   0  0  0  0  0  0  0  0  0  0  0  0
   16.1205   -8.5204    9.0579 C   0  0  0  0  0  0  0  0  0  0  0  0
   17.5904   -8.9518    9.0596 C   0  0  0  0  0  0  0  0  0  0  0  0
   17.9714  -19.1305    1.7050 H   0  0  0  0  0  0  0  0  0  0  0  0
   15.6825  -18.2491    1.5502 H   0  0  0  0  0  0  0  0  0  0  0  0
   15.2810  -15.8766    1.1720 H   0  0  0  0  0  0  0  0  0  0  0  0
   16.1842  -13.5964    0.8010 H   0  0  0  0  0  0  0  0  0  0  0  0
   20.3975  -13.0057    0.7063 H   0  0  0  0  0  0  0  0  0  0  0  0
   20.7991  -15.3766    1.0939 H   0  0  0  0  0  0  0  0  0  0  0  0
   19.8958  -17.6568    1.4657 H   0  0  0  0  0  0  0  0  0  0  0  0
   17.1192  -10.3006    2.2290 H   0  0  0  0  0  0  0  0  0  0  0  0
   19.2568  -11.7003    3.2445 H   0  0  0  0  0  0  0  0  0  0  0  0
   20.0021  -10.4522    2.2173 H   0  0  0  0  0  0  0  0  0  0  0  0
   20.7097  -10.0319    4.7835 H   0  0  0  0  0  0  0  0  0  0  0  0
   20.9349   -7.3991    7.2556 H   0  0  0  0  0  0  0  0  0  0  0  0
   21.6682   -8.9174    6.6851 H   0  0  0  0  0  0  0  0  0  0  0  0
   22.7376   -9.0408    4.5114 H   0  0  0  0  0  0  0  0  0  0  0  0
   23.8886   -7.8103    2.7158 H   0  0  0  0  0  0  0  0  0  0  0  0
   22.1302   -4.1726    4.0814 H   0  0  0  0  0  0  0  0  0  0  0  0
   20.9725   -5.4044    5.8719 H   0  0  0  0  0  0  0  0  0  0  0  0
   24.7613   -4.8265    2.5520 H   0  0  0  0  0  0  0  0  0  0  0  0
   23.0847   -6.3686    0.6801 H   0  0  0  0  0  0  0  0  0  0  0  0
   24.5020   -5.5822    0.3076 H   0  0  0  0  0  0  0  0  0  0  0  0
   22.7879   -3.4085    2.5952 H   0  0  0  0  0  0  0  0  0  0  0  0
   23.4369   -3.4755    1.0654 H   0  0  0  0  0  0  0  0  0  0  0  0
   18.6999   -6.3985    8.4754 H   0  0  0  0  0  0  0  0  0  0  0  0
   18.6137   -6.6598    6.7143 H   0  0  0  0  0  0  0  0  0  0  0  0
   16.1783   -6.9589    6.8356 H   0  0  0  0  0  0  0  0  0  0  0  0
   16.6109   -5.4228    7.6253 H   0  0  0  0  0  0  0  0  0  0  0  0
   14.9967   -6.6828    9.0094 H   0  0  0  0  0  0  0  0  0  0  0  0
   16.5677   -6.5622    9.8372 H   0  0  0  0  0  0  0  0  0  0  0  0
   15.6156   -8.9520    8.1937 H   0  0  0  0  0  0  0  0  0  0  0  0
   15.6385   -8.8670    9.9721 H   0  0  0  0  0  0  0  0  0  0  0  0
   17.6521  -10.0390    9.0109 H   0  0  0  0  0  0  0  0  0  0  0  0
   18.0744   -8.5967    9.9694 H   0  0  0  0  0  0  0  0  0  0  0  0
   23.9860   -6.0625    1.0429 N   0  3  0  0  0  0  0  0  0  0  0  0
   24.5217   -6.8844    1.3461 H   0  0  0  0  0  0  0  0  0  0  0  0
   22.9624   -4.0096    1.7915 N   0  3  0  0  0  0  0  0  0  0  0  0
   22.0649   -4.3487    1.4257 H   0  0  0  0  0  0  0  0  0  0  0  0
  1 10  2  0  0  0  0
  1  2  1  0  0  0  0
  1 37  1  0  0  0  0
  2  3  2  0  0  0  0
  2 38  1  0  0  0  0
  3  4  1  0  0  0  0
  3 39  1  0  0  0  0
  4  9  2  0  0  0  0
  4  5  1  0  0  0  0
  5  6  2  0  0  0  0
  5 40  1  0  0  0  0
  6  7  1  0  0  0  0
  6 11  1  0  0  0  0
  7  8  2  0  0  0  0
  7 41  1  0  0  0  0
  8  9  1  0  0  0  0
  8 42  1  0  0  0  0
  9 10  1  0  0  0  0
 10 43  1  0  0  0  0
 11 12  2  0  0  0  0
 11 13  2  0  0  0  0
 11 14  1  0  0  0  0
 14 15  1  0  0  0  0
 14 44  1  0  0  0  0
 15 16  1  0  0  0  0
 15 45  1  0  0  0  0
 15 46  1  0  0  0  0
 16 17  2  0  0  0  0
 16 18  1  0  0  0  0
 18 19  1  0  0  0  0
 18 47  1  0  0  0  0
 19 20  1  0  0  0  0
 19 21  1  0  0  0  0
 19 29  1  0  0  0  0
 21 22  1  0  0  0  0
 21 48  1  0  0  0  0
 21 49  1  0  0  0  0
 22 27  2  0  0  0  0
 22 23  1  0  0  0  0
 23 24  2  0  0  0  0
 23 50  1  0  0  0  0
 24 25  1  0  0  0  0
 24 51  1  0  0  0  0
 25 26  2  0  0  0  0
 25 28  1  0  0  0  0
 26 27  1  0  0  0  0
 26 52  1  0  0  0  0
 27 53  1  0  0  0  0
 28 54  1  0  0  0  0
 28 69  1  0  0  0  0
 28 71  1  0  0  0  0
 29 30  2  0  0  0  0
 29 31  1  0  0  0  0
 31 36  1  0  0  0  0
 31 32  1  0  0  0  0
 32 33  1  0  0  0  0
 32 59  1  0  0  0  0
 32 60  1  0  0  0  0
 33 34  1  0  0  0  0
 33 61  1  0  0  0  0
 33 62  1  0  0  0  0
 34 35  1  0  0  0  0
 34 63  1  0  0  0  0
 34 64  1  0  0  0  0
 35 36  1  0  0  0  0
 35 65  1  0  0  0  0
 35 66  1  0  0  0  0
 36 67  1  0  0  0  0
 36 68  1  0  0  0  0
 55 69  1  0  0  0  0
 56 69  1  0  0  0  0
 57 71  1  0  0  0  0
 58 71  1  0  0  0  0
 69 70  1  0  0  0  0
 71 72  1  0  0  0  0
M  CHG  2  69   1  71   1
M  END
