
  ACD/Labs07171520393D

 66 68  0  0  0  0  0  0  0  0  1 V2000
   20.5874  -16.9710   23.5710 C   0  0  0  0  0  0  0  0  0  0  0  0
   21.2904  -15.7860   23.2310 C   0  0  0  0  0  0  0  0  0  0  0  0
   22.7044  -15.8220   23.2540 C   0  0  0  0  0  0  0  0  0  0  0  0
   23.3944  -16.9980   23.5980 C   0  0  0  0  0  0  0  0  0  0  0  0
   22.6784  -18.1590   23.9320 C   0  0  0  0  0  0  0  0  0  0  0  0
   21.2664  -18.1610   23.9210 C   0  0  0  0  0  0  0  0  0  0  0  0
   18.8304  -13.4740   21.5630 C   0  0  0  0  0  0  0  0  0  0  0  0
   19.2404  -12.2050   22.0340 C   0  0  0  0  0  0  0  0  0  0  0  0
   20.3314  -12.1580   22.9320 C   0  0  0  0  0  0  0  0  0  0  0  0
   20.9914  -13.3310   23.3360 C   0  0  0  0  0  0  0  0  0  0  0  0
   20.5944  -14.5970   22.8500 C   0  0  0  0  0  0  0  0  0  0  0  0
   19.5004  -14.6460   21.9560 C   0  0  0  0  0  0  0  0  0  0  0  0
   18.5994  -11.0410   21.6110 C   0  0  0  0  0  0  0  0  0  0  0  0
   19.2884   -9.9120   21.4790 N   0  0  0  0  0  0  0  0  0  0  0  0
   18.8214   -8.6320   21.0190 C   0  0  0  0  0  0  0  0  0  0  0  0
   19.4014   -8.3930   19.5960 C   0  0  0  0  0  0  0  0  0  0  0  0
   19.1664   -7.5190   22.0750 C   0  0  0  0  0  0  0  0  0  0  0  0
   18.5134   -6.2360   21.7060 C   0  0  0  0  0  0  0  0  0  0  0  0
   17.1794   -6.0930   21.9280 O   0  0  0  0  0  0  0  0  0  0  0  0
   20.6954   -7.3710   22.3880 C   0  0  0  0  0  0  0  0  0  0  0  0
   20.5224  -19.4010   24.2740 C   0  0  0  0  0  0  0  0  0  0  0  0
   20.7604  -20.4510   23.2760 N   0  0  0  0  0  0  0  0  0  0  0  0
   20.6044   -6.5410   24.7750 C   0  0  0  0  0  0  0  0  0  0  0  0
   20.9004   -5.5960   25.7910 C   0  0  0  0  0  0  0  0  0  0  0  0
   21.6554   -4.4530   25.4290 C   0  0  0  0  0  0  0  0  0  0  0  0
   22.0874   -4.2600   24.1080 C   0  0  0  0  0  0  0  0  0  0  0  0
   21.7784   -5.2070   23.1190 C   0  0  0  0  0  0  0  0  0  0  0  0
   21.0254   -6.3600   23.4360 C   0  0  0  0  0  0  0  0  0  0  0  0
   20.4554   -5.7870   27.1340 C   0  0  0  0  0  0  0  0  0  0  0  0
   20.9904   -5.1170   28.1740 N   0  0  0  0  0  0  0  0  0  0  0  0
   19.4684   -6.6480   27.4480 N   0  0  0  0  0  0  0  0  0  0  0  0
   19.2084   -5.2500   21.0920 O   0  0  0  0  0  0  0  0  0  0  0  0
   17.4104  -11.0810   21.3140 O   0  0  0  0  0  0  0  0  0  0  0  0
   16.3874   -4.9470   21.6010 C   0  0  0  0  0  0  0  0  0  0  0  0
   19.5604  -16.9680   23.5680 H   0  0  0  0  0  0  0  0  0  0  0  0
   23.2494  -14.9960   22.9950 H   0  0  0  0  0  0  0  0  0  0  0  0
   24.4144  -17.0080   23.6050 H   0  0  0  0  0  0  0  0  0  0  0  0
   23.1974  -19.0060   24.1810 H   0  0  0  0  0  0  0  0  0  0  0  0
   18.0584  -13.5580   20.8970 H   0  0  0  0  0  0  0  0  0  0  0  0
   20.6494  -11.2670   23.3210 H   0  0  0  0  0  0  0  0  0  0  0  0
   21.7674  -13.2490   23.9960 H   0  0  0  0  0  0  0  0  0  0  0  0
   19.1954  -15.5360   21.5550 H   0  0  0  0  0  0  0  0  0  0  0  0
   20.2404   -9.9700   21.6610 H   0  0  0  0  0  0  0  0  0  0  0  0
   17.7304   -8.6520   20.9140 H   0  0  0  0  0  0  0  0  0  0  0  0
   20.4914   -8.4390   19.6030 H   0  0  0  0  0  0  0  0  0  0  0  0
   19.0944   -7.4200   19.2100 H   0  0  0  0  0  0  0  0  0  0  0  0
   19.0324   -9.1630   18.9120 H   0  0  0  0  0  0  0  0  0  0  0  0
   18.6924   -7.8360   23.0120 H   0  0  0  0  0  0  0  0  0  0  0  0
   21.0874   -8.3300   22.7300 H   0  0  0  0  0  0  0  0  0  0  0  0
   21.2194   -7.1300   21.4610 H   0  0  0  0  0  0  0  0  0  0  0  0
   20.8424  -19.7530   25.2560 H   0  0  0  0  0  0  0  0  0  0  0  0
   19.4444  -19.2270   24.3180 H   0  0  0  0  0  0  0  0  0  0  0  0
   20.4654  -20.1220   22.3550 H   0  0  0  0  0  0  0  0  0  0  0  0
   20.2224  -21.2860   23.5270 H   0  0  0  0  0  0  0  0  0  0  0  0
   21.7554  -20.6830   23.2460 H   0  0  0  0  0  0  0  0  0  0  0  0
   20.0824   -7.3890   25.0080 H   0  0  0  0  0  0  0  0  0  0  0  0
   21.8914   -3.7360   26.1210 H   0  0  0  0  0  0  0  0  0  0  0  0
   22.6274   -3.4270   23.8620 H   0  0  0  0  0  0  0  0  0  0  0  0
   22.1054   -5.0450   22.1640 H   0  0  0  0  0  0  0  0  0  0  0  0
   20.6614   -5.2810   29.0740 H   0  0  0  0  0  0  0  0  0  0  0  0
   21.7174   -4.4890   28.0360 H   0  0  0  0  0  0  0  0  0  0  0  0
   19.1944   -6.7540   28.3730 H   0  0  0  0  0  0  0  0  0  0  0  0
   16.7584   -4.0660   22.1300 H   0  0  0  0  0  0  0  0  0  0  0  0
   15.3554   -5.1320   21.8990 H   0  0  0  0  0  0  0  0  0  0  0  0
   16.4164   -4.7670   20.5230 H   0  0  0  0  0  0  0  0  0  0  0  0
   19.0224   -7.1570   26.7530 H   0  0  0  0  0  0  0  0  0  0  0  0
  1 35  1  0  0  0  0
  1  2  1  0  0  0  0
  1  6  2  0  0  0  0
  2  3  2  0  0  0  0
  2 11  1  0  0  0  0
  3 36  1  0  0  0  0
  3  4  1  0  0  0  0
  4 37  1  0  0  0  0
  4  5  2  0  0  0  0
  5 38  1  0  0  0  0
  5  6  1  0  0  0  0
  6 21  1  0  0  0  0
  7 39  1  0  0  0  0
  7 12  2  0  0  0  0
  7  8  1  0  0  0  0
  8 13  1  0  0  0  0
  8  9  2  0  0  0  0
  9 40  1  0  0  0  0
  9 10  1  0  0  0  0
 10 41  1  0  0  0  0
 10 11  2  0  0  0  0
 11 12  1  0  0  0  0
 12 42  1  0  0  0  0
 13 14  1  0  0  0  0
 13 33  2  0  0  0  0
 14 43  1  0  0  0  0
 14 15  1  0  0  0  0
 15 44  1  0  0  0  0
 15 16  1  0  0  0  0
 15 17  1  0  0  0  0
 16 47  1  0  0  0  0
 16 46  1  0  0  0  0
 16 45  1  0  0  0  0
 17 48  1  0  0  0  0
 17 18  1  0  0  0  0
 17 20  1  0  0  0  0
 18 19  1  0  0  0  0
 18 32  2  0  0  0  0
 19 34  1  0  0  0  0
 20 50  1  0  0  0  0
 20 49  1  0  0  0  0
 20 28  1  0  0  0  0
 21 52  1  0  0  0  0
 21 51  1  0  0  0  0
 21 22  1  0  0  0  0
 22 55  1  0  0  0  0
 22 54  1  0  0  0  0
 22 53  1  0  0  0  0
 23 56  1  0  0  0  0
 23 24  1  0  0  0  0
 23 28  2  0  0  0  0
 24 25  2  0  0  0  0
 24 29  1  0  0  0  0
 25 57  1  0  0  0  0
 25 26  1  0  0  0  0
 26 58  1  0  0  0  0
 26 27  2  0  0  0  0
 27 59  1  0  0  0  0
 27 28  1  0  0  0  0
 29 30  2  0  0  0  0
 29 31  1  0  0  0  0
 30 61  1  0  0  0  0
 30 60  1  0  0  0  0
 31 66  1  0  0  0  0
 31 62  1  0  0  0  0
 34 65  1  0  0  0  0
 34 64  1  0  0  0  0
 34 63  1  0  0  0  0
M  END
