ZINC03814275
  -OEChem-08230709403D

 54 57  0     1  0  0  0  0  0999 V2000
   -7.7690    2.0367   -2.4975 C   0  0  0  0  0  0  0  0  0  0  0  0
   -7.1189    2.1750   -1.2325 O   0  0  0  0  0  0  0  0  0  0  0  0
   -6.4354    3.3263   -1.0139 C   0  0  0  0  0  0  0  0  0  0  0  0
   -6.3912    4.3060   -2.0000 C   0  0  0  0  0  0  0  0  0  0  0  0
   -5.7061    5.4659   -1.7862 C   0  0  0  0  0  0  0  0  0  0  0  0
   -5.0392    5.6804   -0.5675 C   0  0  0  0  0  0  0  0  0  0  0  0
   -5.0848    4.6953    0.4216 C   0  0  0  0  0  0  0  0  0  0  0  0
   -5.7847    3.5281    0.1975 C   0  0  0  0  0  0  0  0  0  0  0  0
   -4.3005    5.1530    1.6278 C   0  0  0  0  0  0  0  0  0  0  0  0
   -3.7541    6.5451    1.2822 C   0  0  2  0  0  0  0  0  0  0  0  0
   -4.0969    7.2115    1.9443 H   0  0  0  0  0  0  0  0  0  0  0  0
   -4.2483    6.8329   -0.1146 C   0  0  0  0  0  0  0  0  0  0  0  0
   -4.0303    7.8411   -0.7527 O   0  0  0  0  0  0  0  0  0  0  0  0
   -2.2244    6.5365    1.3120 C   0  0  0  0  0  0  0  0  0  0  0  0
   -1.7024    7.9607    1.1123 C   0  0  0  0  0  0  0  0  0  0  0  0
   -0.1751    7.9358    1.0061 C   0  0  0  0  0  0  0  0  0  0  0  0
    0.3453    9.3685    0.8692 C   0  0  0  0  0  0  0  0  0  0  0  0
   -1.5339   10.2341    2.1308 C   0  0  0  0  0  0  0  0  0  0  0  0
   -2.1103    8.8274    2.3069 C   0  0  0  0  0  0  0  0  0  0  0  0
    0.5268   11.4983    2.0056 C   0  0  0  0  0  0  0  0  0  0  0  0
    1.9904   11.3888    1.6638 C   0  0  0  0  0  0  0  0  0  0  0  0
    2.9272   11.2530    2.6713 C   0  0  0  0  0  0  0  0  0  0  0  0
    4.2693   11.1472    2.3575 C   0  0  0  0  0  0  0  0  0  0  0  0
    4.6756   11.1882    1.0368 C   0  0  0  0  0  0  0  0  0  0  0  0
    3.7394   11.3298    0.0297 C   0  0  0  0  0  0  0  0  0  0  0  0
    2.3968   11.4298    0.3432 C   0  0  0  0  0  0  0  0  0  0  0  0
   -8.4976    2.8378   -2.6210 H   0  0  0  0  0  0  0  0  0  0  0  0
   -7.0280    2.0933   -3.2949 H   0  0  0  0  0  0  0  0  0  0  0  0
   -8.2771    1.0734   -2.5414 H   0  0  0  0  0  0  0  0  0  0  0  0
   -6.9017    4.1479   -2.9386 H   0  0  0  0  0  0  0  0  0  0  0  0
   -5.6756    6.2223   -2.5564 H   0  0  0  0  0  0  0  0  0  0  0  0
   -5.8241    2.7678    0.9636 H   0  0  0  0  0  0  0  0  0  0  0  0
   -4.9535    5.2124    2.4986 H   0  0  0  0  0  0  0  0  0  0  0  0
   -3.4782    4.4647    1.8231 H   0  0  0  0  0  0  0  0  0  0  0  0
   -1.8819    6.1555    2.2741 H   0  0  0  0  0  0  0  0  0  0  0  0
   -1.8491    5.8966    0.5134 H   0  0  0  0  0  0  0  0  0  0  0  0
   -2.1244    8.3785    0.1982 H   0  0  0  0  0  0  0  0  0  0  0  0
    0.2447    7.4812    1.9034 H   0  0  0  0  0  0  0  0  0  0  0  0
    0.1194    7.3555    0.1316 H   0  0  0  0  0  0  0  0  0  0  0  0
   -0.0632    9.8173   -0.0363 H   0  0  0  0  0  0  0  0  0  0  0  0
    1.4335    9.3552    0.8089 H   0  0  0  0  0  0  0  0  0  0  0  0
   -1.9336   10.6789    1.2194 H   0  0  0  0  0  0  0  0  0  0  0  0
   -1.8106   10.8497    2.9867 H   0  0  0  0  0  0  0  0  0  0  0  0
   -3.1975    8.8838    2.3612 H   0  0  0  0  0  0  0  0  0  0  0  0
   -1.7224    8.3869    3.2254 H   0  0  0  0  0  0  0  0  0  0  0  0
    0.0221   12.1035    1.2526 H   0  0  0  0  0  0  0  0  0  0  0  0
    0.4161   11.9678    2.9831 H   0  0  0  0  0  0  0  0  0  0  0  0
    2.6101   11.2254    3.7033 H   0  0  0  0  0  0  0  0  0  0  0  0
    5.0007   11.0363    3.1443 H   0  0  0  0  0  0  0  0  0  0  0  0
    5.7245   11.1094    0.7919 H   0  0  0  0  0  0  0  0  0  0  0  0
    4.0568   11.3619   -1.0021 H   0  0  0  0  0  0  0  0  0  0  0  0
    1.6653   11.5404   -0.4436 H   0  0  0  0  0  0  0  0  0  0  0  0
   -0.0600   10.1435    2.0613 N   0  3  0  0  0  0  0  0  0  0  0  0
    0.2842    9.6654    2.9022 H   0  0  0  0  0  0  0  0  0  0  0  0
  1  2  1  0  0  0  0
  1 27  1  0  0  0  0
  1 28  1  0  0  0  0
  1 29  1  0  0  0  0
  2  3  1  0  0  0  0
  3  8  2  0  0  0  0
  3  4  1  0  0  0  0
  4  5  2  0  0  0  0
  4 30  1  0  0  0  0
  5  6  1  0  0  0  0
  5 31  1  0  0  0  0
  6 12  1  0  0  0  0
  6  7  2  0  0  0  0
  7  8  1  0  0  0  0
  7  9  1  0  0  0  0
  8 32  1  0  0  0  0
  9 10  1  0  0  0  0
  9 33  1  0  0  0  0
  9 34  1  0  0  0  0
 10 11  1  0  0  0  0
 10 12  1  0  0  0  0
 10 14  1  0  0  0  0
 12 13  2  0  0  0  0
 14 15  1  0  0  0  0
 14 35  1  0  0  0  0
 14 36  1  0  0  0  0
 15 19  1  0  0  0  0
 15 16  1  0  0  0  0
 15 37  1  0  0  0  0
 16 17  1  0  0  0  0
 16 38  1  0  0  0  0
 16 39  1  0  0  0  0
 17 40  1  0  0  0  0
 17 41  1  0  0  0  0
 17 53  1  0  0  0  0
 18 19  1  0  0  0  0
 18 42  1  0  0  0  0
 18 43  1  0  0  0  0
 18 53  1  0  0  0  0
 19 44  1  0  0  0  0
 19 45  1  0  0  0  0
 20 21  1  0  0  0  0
 20 46  1  0  0  0  0
 20 47  1  0  0  0  0
 20 53  1  0  0  0  0
 21 26  2  0  0  0  0
 21 22  1  0  0  0  0
 22 23  2  0  0  0  0
 22 48  1  0  0  0  0
 23 24  1  0  0  0  0
 23 49  1  0  0  0  0
 24 25  2  0  0  0  0
 24 50  1  0  0  0  0
 25 26  1  0  0  0  0
 25 51  1  0  0  0  0
 26 52  1  0  0  0  0
 53 54  1  0  0  0  0
M  CHG  1  53   1
M  END
$$$$
