ZINC03814176
  -OEChem-08230709403D

 45 46  0     1  0  0  0  0  0999 V2000
   -2.4510    3.4208   -2.7790 C   0  0  0  0  0  0  0  0  0  0  0  0
   -2.4966    1.8932   -2.8517 C   0  0  1  0  0  0  0  0  0  0  0  0
   -1.8974    1.5517   -3.6958 H   0  0  0  0  0  0  0  0  0  0  0  0
   -1.9435    1.3128   -1.5757 C   0  0  0  0  0  0  0  0  0  0  0  0
   -2.6391    0.6021   -0.8814 O   0  0  0  0  0  0  0  0  0  0  0  0
   -0.6761    1.5836   -1.2060 N   0  0  0  0  0  0  0  0  0  0  0  0
    0.2750    2.4274   -1.9522 C   0  0  0  0  0  0  0  0  0  0  0  0
    1.6750    1.9390   -1.5038 C   0  0  0  0  0  0  0  0  0  0  0  0
    1.4312    1.6304   -0.0029 C   0  0  0  0  0  0  0  0  0  0  0  0
   -0.0127    1.0858    0.0080 C   0  0  1  0  0  0  0  0  0  0  0  0
    0.0021   -0.0041    0.0020 H   0  0  0  0  0  0  0  0  0  0  0  0
   -0.7382    1.5816    1.2323 C   0  0  0  0  0  0  0  0  0  0  0  0
   -1.7192    2.2768    1.1130 O   0  0  0  0  0  0  0  0  0  0  0  0
   -3.8868    1.4526   -3.0279 N   0  0  0  0  0  0  0  0  0  0  0  0
   -4.2409    1.2100   -4.6553 P   0  0  2  0  0  0  0  0  0  0  0  0
   -4.0469    2.4762   -5.3965 O   0  0  0  0  0  0  0  0  0  0  0  0
   -5.9723    0.6653   -4.8257 C   0  0  0  0  0  0  0  0  0  0  0  0
   -6.2942    0.4448   -6.3051 C   0  0  0  0  0  0  0  0  0  0  0  0
   -7.7255   -0.0055   -6.4461 C   0  0  0  0  0  0  0  0  0  0  0  0
   -8.0315   -1.3534   -6.4224 C   0  0  0  0  0  0  0  0  0  0  0  0
   -9.3449   -1.7662   -6.5472 C   0  0  0  0  0  0  0  0  0  0  0  0
  -10.3511   -0.8316   -6.7049 C   0  0  0  0  0  0  0  0  0  0  0  0
  -10.0445    0.5160   -6.7339 C   0  0  0  0  0  0  0  0  0  0  0  0
   -8.7316    0.9290   -6.6047 C   0  0  0  0  0  0  0  0  0  0  0  0
   -2.8510    3.8406   -3.7019 H   0  0  0  0  0  0  0  0  0  0  0  0
   -3.0502    3.7624   -1.9349 H   0  0  0  0  0  0  0  0  0  0  0  0
   -1.4195    3.7478   -2.6482 H   0  0  0  0  0  0  0  0  0  0  0  0
    0.1374    3.4766   -1.6904 H   0  0  0  0  0  0  0  0  0  0  0  0
    0.1494    2.2854   -3.0256 H   0  0  0  0  0  0  0  0  0  0  0  0
    2.4203    2.7250   -1.6250 H   0  0  0  0  0  0  0  0  0  0  0  0
    1.9667    1.0391   -2.0453 H   0  0  0  0  0  0  0  0  0  0  0  0
    1.5052    2.5390    0.5947 H   0  0  0  0  0  0  0  0  0  0  0  0
    2.1310    0.8747    0.3541 H   0  0  0  0  0  0  0  0  0  0  0  0
   -4.0733    0.6200   -2.4893 H   0  0  0  0  0  0  0  0  0  0  0  0
   -6.1152   -0.2673   -4.2799 H   0  0  0  0  0  0  0  0  0  0  0  0
   -6.6352    1.4293   -4.4196 H   0  0  0  0  0  0  0  0  0  0  0  0
   -6.1513    1.3773   -6.8510 H   0  0  0  0  0  0  0  0  0  0  0  0
   -5.6313   -0.3192   -6.7113 H   0  0  0  0  0  0  0  0  0  0  0  0
   -7.2449   -2.0837   -6.3029 H   0  0  0  0  0  0  0  0  0  0  0  0
   -9.5845   -2.8190   -6.5243 H   0  0  0  0  0  0  0  0  0  0  0  0
  -11.3769   -1.1543   -6.8052 H   0  0  0  0  0  0  0  0  0  0  0  0
  -10.8307    1.2462   -6.8571 H   0  0  0  0  0  0  0  0  0  0  0  0
   -8.4921    1.9819   -6.6273 H   0  0  0  0  0  0  0  0  0  0  0  0
   -0.2947    1.2509    2.4552 O   0  5  0  0  0  0  0  0  0  0  0  0
   -3.2618    0.0815   -5.2552 O   0  5  0  0  0  0  0  0  0  0  0  0
  1  2  1  0  0  0  0
  1 25  1  0  0  0  0
  1 26  1  0  0  0  0
  1 27  1  0  0  0  0
  2  3  1  0  0  0  0
  2  4  1  0  0  0  0
  2 14  1  0  0  0  0
  4  5  2  0  0  0  0
  4  6  1  0  0  0  0
  6 10  1  0  0  0  0
  6  7  1  0  0  0  0
  7  8  1  0  0  0  0
  7 28  1  0  0  0  0
  7 29  1  0  0  0  0
  8  9  1  0  0  0  0
  8 30  1  0  0  0  0
  8 31  1  0  0  0  0
  9 10  1  0  0  0  0
  9 32  1  0  0  0  0
  9 33  1  0  0  0  0
 10 11  1  0  0  0  0
 10 12  1  0  0  0  0
 12 13  2  0  0  0  0
 12 44  1  0  0  0  0
 14 15  1  0  0  0  0
 14 34  1  0  0  0  0
 15 16  2  0  0  0  0
 15 17  1  0  0  0  0
 15 45  1  0  0  0  0
 17 18  1  0  0  0  0
 17 35  1  0  0  0  0
 17 36  1  0  0  0  0
 18 19  1  0  0  0  0
 18 37  1  0  0  0  0
 18 38  1  0  0  0  0
 19 24  2  0  0  0  0
 19 20  1  0  0  0  0
 20 21  2  0  0  0  0
 20 39  1  0  0  0  0
 21 22  1  0  0  0  0
 21 40  1  0  0  0  0
 22 23  2  0  0  0  0
 22 41  1  0  0  0  0
 23 24  1  0  0  0  0
 23 42  1  0  0  0  0
 24 43  1  0  0  0  0
M  CHG  2  44  -1  45  -1
M  END
$$$$
