ZINC03814190
  -OEChem-08230709403D

 56 58  0     1  0  0  0  0  0999 V2000
   -0.3321    0.1917    5.6699 C   0  0  0  0  0  0  0  0  0  0  0  0
   -1.3390    0.6361    4.8327 C   0  0  0  0  0  0  0  0  0  0  0  0
   -2.1591   -0.2731    4.1908 C   0  0  0  0  0  0  0  0  0  0  0  0
   -1.9675   -1.6288    4.3762 C   0  0  0  0  0  0  0  0  0  0  0  0
   -0.9548   -2.0772    5.2113 C   0  0  0  0  0  0  0  0  0  0  0  0
   -0.1365   -1.1625    5.8585 C   0  0  0  0  0  0  0  0  0  0  0  0
   -0.7641   -3.4102    5.3949 O   0  0  0  0  0  0  0  0  0  0  0  0
   -3.2588    0.2147    3.2833 C   0  0  1  0  0  0  0  0  0  0  0  0
   -3.5781   -0.5807    2.6099 H   0  0  0  0  0  0  0  0  0  0  0  0
   -4.4540    0.7290    4.1140 C   0  0  0  0  0  0  0  0  0  0  0  0
   -4.9835    1.9533    3.3392 C   0  0  0  0  0  0  0  0  0  0  0  0
   -4.0636    2.0757    2.1054 C   0  0  2  0  0  0  0  0  0  0  0  0
   -4.5089    1.5715    1.2477 H   0  0  0  0  0  0  0  0  0  0  0  0
   -2.8045    1.3981    2.5085 N   0  0  2  0  0  0  0  0  0  0  0  0
   -2.0295    0.9914    1.3363 O   0  0  0  0  0  0  0  0  0  0  0  0
   -0.7288    1.5792    1.2668 C   0  0  0  0  0  0  0  0  0  0  0  0
   -0.0127    1.0858    0.0080 C   0  0  0  0  0  0  0  0  0  0  0  0
   -0.7213    1.5711   -1.1789 N   0  0  0  0  0  0  0  0  0  0  0  0
   -0.2681    1.2584   -2.4090 C   0  0  0  0  0  0  0  0  0  0  0  0
    0.7262    0.5752   -2.5335 O   0  0  0  0  0  0  0  0  0  0  0  0
   -0.9970    1.7576   -3.6299 C   0  0  1  0  0  0  0  0  0  0  0  0
   -1.4758    2.7102   -3.4031 H   0  0  0  0  0  0  0  0  0  0  0  0
   -0.0015    1.9474   -4.7761 C   0  0  0  0  0  0  0  0  0  0  0  0
   -0.7069    2.5618   -5.9576 C   0  0  0  0  0  0  0  0  0  0  0  0
   -1.2896    1.7492   -6.9126 C   0  0  0  0  0  0  0  0  0  0  0  0
   -1.9418    2.3100   -7.9936 C   0  0  0  0  0  0  0  0  0  0  0  0
   -2.0020    3.6896   -8.1265 C   0  0  0  0  0  0  0  0  0  0  0  0
   -1.4116    4.5027   -7.1700 C   0  0  0  0  0  0  0  0  0  0  0  0
   -0.7655    3.9371   -6.0878 C   0  0  0  0  0  0  0  0  0  0  0  0
   -2.6385    4.2437   -9.1917 O   0  0  0  0  0  0  0  0  0  0  0  0
   -2.2578    0.5482   -4.1181 S   0  0  0  0  0  0  0  0  0  0  0  0
   -3.8017    3.5252    1.7868 C   0  0  0  0  0  0  0  0  0  0  0  0
   -2.6828    3.9715    1.8798 O   0  0  0  0  0  0  0  0  0  0  0  0
    0.3044    0.9041    6.1737 H   0  0  0  0  0  0  0  0  0  0  0  0
   -1.4875    1.6953    4.6830 H   0  0  0  0  0  0  0  0  0  0  0  0
   -2.6060   -2.3388    3.8716 H   0  0  0  0  0  0  0  0  0  0  0  0
    0.6529   -1.5091    6.5090 H   0  0  0  0  0  0  0  0  0  0  0  0
   -0.1508   -3.8104    4.7635 H   0  0  0  0  0  0  0  0  0  0  0  0
   -4.1236    1.0251    5.1097 H   0  0  0  0  0  0  0  0  0  0  0  0
   -5.2253   -0.0381    4.1827 H   0  0  0  0  0  0  0  0  0  0  0  0
   -4.9129    2.8503    3.9545 H   0  0  0  0  0  0  0  0  0  0  0  0
   -6.0147    1.7872    3.0275 H   0  0  0  0  0  0  0  0  0  0  0  0
   -0.1536    1.2938    2.1476 H   0  0  0  0  0  0  0  0  0  0  0  0
   -0.8222    2.6646    1.2299 H   0  0  0  0  0  0  0  0  0  0  0  0
    0.0021   -0.0041    0.0020 H   0  0  0  0  0  0  0  0  0  0  0  0
    1.0099    1.4631    0.0003 H   0  0  0  0  0  0  0  0  0  0  0  0
   -1.5165    2.1175   -1.0793 H   0  0  0  0  0  0  0  0  0  0  0  0
    0.8047    2.6055   -4.4519 H   0  0  0  0  0  0  0  0  0  0  0  0
    0.4118    0.9803   -5.0624 H   0  0  0  0  0  0  0  0  0  0  0  0
   -1.2387    0.6752   -6.8109 H   0  0  0  0  0  0  0  0  0  0  0  0
   -2.4006    1.6749   -8.7369 H   0  0  0  0  0  0  0  0  0  0  0  0
   -1.4574    5.5770   -7.2710 H   0  0  0  0  0  0  0  0  0  0  0  0
   -0.3061    4.5696   -5.3427 H   0  0  0  0  0  0  0  0  0  0  0  0
   -2.0670    4.3932   -9.9573 H   0  0  0  0  0  0  0  0  0  0  0  0
   -1.5552   -0.5708   -4.3696 H   0  0  0  0  0  0  0  0  0  0  0  0
   -4.8115    4.3204    1.3998 O   0  5  0  0  0  0  0  0  0  0  0  0
  1  6  2  0  0  0  0
  1  2  1  0  0  0  0
  1 34  1  0  0  0  0
  2  3  2  0  0  0  0
  2 35  1  0  0  0  0
  3  4  1  0  0  0  0
  3  8  1  0  0  0  0
  4  5  2  0  0  0  0
  4 36  1  0  0  0  0
  5  6  1  0  0  0  0
  5  7  1  0  0  0  0
  6 37  1  0  0  0  0
  7 38  1  0  0  0  0
  8  9  1  0  0  0  0
  8 14  1  0  0  0  0
  8 10  1  0  0  0  0
 10 11  1  0  0  0  0
 10 39  1  0  0  0  0
 10 40  1  0  0  0  0
 11 12  1  0  0  0  0
 11 41  1  0  0  0  0
 11 42  1  0  0  0  0
 12 13  1  0  0  0  0
 12 14  1  0  0  0  0
 12 32  1  0  0  0  0
 14 15  1  0  0  0  0
 15 16  1  0  0  0  0
 16 17  1  0  0  0  0
 16 43  1  0  0  0  0
 16 44  1  0  0  0  0
 17 18  1  0  0  0  0
 17 45  1  0  0  0  0
 17 46  1  0  0  0  0
 18 19  1  0  0  0  0
 18 47  1  0  0  0  0
 19 20  2  0  0  0  0
 19 21  1  0  0  0  0
 21 22  1  0  0  0  0
 21 23  1  0  0  0  0
 21 31  1  0  0  0  0
 23 24  1  0  0  0  0
 23 48  1  0  0  0  0
 23 49  1  0  0  0  0
 24 29  2  0  0  0  0
 24 25  1  0  0  0  0
 25 26  2  0  0  0  0
 25 50  1  0  0  0  0
 26 27  1  0  0  0  0
 26 51  1  0  0  0  0
 27 28  2  0  0  0  0
 27 30  1  0  0  0  0
 28 29  1  0  0  0  0
 28 52  1  0  0  0  0
 29 53  1  0  0  0  0
 30 54  1  0  0  0  0
 31 55  1  0  0  0  0
 32 33  2  0  0  0  0
 32 56  1  0  0  0  0
M  CHG  1  56  -1
M  END
$$$$
