ZINC03814185
  -OEChem-08230709403D

 54 56  0     1  0  0  0  0  0999 V2000
   -1.0611   -4.9439    1.4952 C   0  0  0  0  0  0  0  0  0  0  0  0
   -0.9961   -3.8971    0.3813 C   0  0  1  0  0  0  0  0  0  0  0  0
   -0.0396   -3.9755   -0.1356 H   0  0  0  0  0  0  0  0  0  0  0  0
   -2.1169   -4.1348   -0.5976 C   0  0  0  0  0  0  0  0  0  0  0  0
   -2.9458   -3.2710   -0.7919 O   0  0  0  0  0  0  0  0  0  0  0  0
   -2.1984   -5.3074   -1.2570 N   0  0  0  0  0  0  0  0  0  0  0  0
   -1.2595   -6.4360   -1.1221 C   0  0  0  0  0  0  0  0  0  0  0  0
   -1.3894   -7.2235   -2.4473 C   0  0  0  0  0  0  0  0  0  0  0  0
   -2.9063   -7.0895   -2.7447 C   0  0  0  0  0  0  0  0  0  0  0  0
   -3.2345   -5.6704   -2.2349 C   0  0  1  0  0  0  0  0  0  0  0  0
   -3.2226   -4.9658   -3.0664 H   0  0  0  0  0  0  0  0  0  0  0  0
   -4.5885   -5.6639   -1.5731 C   0  0  0  0  0  0  0  0  0  0  0  0
   -4.6870   -5.3850   -0.4017 O   0  0  0  0  0  0  0  0  0  0  0  0
    0.1692   -2.0499    1.4265 C   0  0  1  0  0  0  0  0  0  0  0  0
    0.9549   -2.3989    0.7565 H   0  0  0  0  0  0  0  0  0  0  0  0
    0.1484   -0.5200    1.4349 C   0  0  0  0  0  0  0  0  0  0  0  0
    0.0021   -0.0041    0.0020 C   0  0  0  0  0  0  0  0  0  0  0  0
   -0.0184    1.5028    0.0103 C   0  0  0  0  0  0  0  0  0  0  0  0
   -1.2044    2.1709    0.0195 C   0  0  0  0  0  0  0  0  0  0  0  0
   -1.2432    3.5636    0.0321 C   0  0  0  0  0  0  0  0  0  0  0  0
   -0.0962    4.2968    0.0255 C   0  0  0  0  0  0  0  0  0  0  0  0
    1.1470    3.6423    0.0107 C   0  0  0  0  0  0  0  0  0  0  0  0
    1.1866    2.2254    0.0027 C   0  0  0  0  0  0  0  0  0  0  0  0
    2.4303    1.5711   -0.0117 C   0  0  0  0  0  0  0  0  0  0  0  0
    3.5768    2.3042   -0.0173 C   0  0  0  0  0  0  0  0  0  0  0  0
    3.5379    3.6975   -0.0098 C   0  0  0  0  0  0  0  0  0  0  0  0
    2.3522    4.3653    0.0041 C   0  0  0  0  0  0  0  0  0  0  0  0
    0.4360   -2.5563    2.8206 C   0  0  0  0  0  0  0  0  0  0  0  0
   -0.3730   -3.2650    3.3711 O   0  0  0  0  0  0  0  0  0  0  0  0
   -2.0176   -4.8655    2.0121 H   0  0  0  0  0  0  0  0  0  0  0  0
   -0.9617   -5.9400    1.0639 H   0  0  0  0  0  0  0  0  0  0  0  0
   -0.2504   -4.7720    2.2032 H   0  0  0  0  0  0  0  0  0  0  0  0
   -0.2408   -6.0692   -0.9967 H   0  0  0  0  0  0  0  0  0  0  0  0
   -1.5430   -7.0666   -0.2795 H   0  0  0  0  0  0  0  0  0  0  0  0
   -1.1085   -8.2680   -2.3123 H   0  0  0  0  0  0  0  0  0  0  0  0
   -0.7946   -6.7596   -3.2341 H   0  0  0  0  0  0  0  0  0  0  0  0
   -3.4750   -7.8384   -2.1936 H   0  0  0  0  0  0  0  0  0  0  0  0
   -3.0979   -7.1687   -3.8148 H   0  0  0  0  0  0  0  0  0  0  0  0
    1.0789   -0.1464    1.8624 H   0  0  0  0  0  0  0  0  0  0  0  0
   -0.6926   -0.1713    2.0343 H   0  0  0  0  0  0  0  0  0  0  0  0
   -0.9284   -0.3777   -0.4254 H   0  0  0  0  0  0  0  0  0  0  0  0
    0.8431   -0.3527   -0.5974 H   0  0  0  0  0  0  0  0  0  0  0  0
   -2.1291    1.6130    0.0209 H   0  0  0  0  0  0  0  0  0  0  0  0
   -2.1975    4.0691    0.0431 H   0  0  0  0  0  0  0  0  0  0  0  0
   -0.1416    5.3758    0.0321 H   0  0  0  0  0  0  0  0  0  0  0  0
    2.4760    0.4920   -0.0176 H   0  0  0  0  0  0  0  0  0  0  0  0
    4.5312    1.7989   -0.0280 H   0  0  0  0  0  0  0  0  0  0  0  0
    4.4626    4.2554   -0.0149 H   0  0  0  0  0  0  0  0  0  0  0  0
    2.3375    5.4452    0.0104 H   0  0  0  0  0  0  0  0  0  0  0  0
   -5.6849   -5.9680   -2.2852 O   0  5  0  0  0  0  0  0  0  0  0  0
   -1.1392   -2.5492    0.9633 N   0  3  0  0  0  0  0  0  0  0  0  0
   -1.7869   -2.5908    1.7589 H   0  0  0  0  0  0  0  0  0  0  0  0
   -1.5126   -1.9107    0.2511 H   0  0  0  0  0  0  0  0  0  0  0  0
    1.5725   -2.2200    3.4507 O   0  5  0  0  0  0  0  0  0  0  0  0
  1  2  1  0  0  0  0
  1 30  1  0  0  0  0
  1 31  1  0  0  0  0
  1 32  1  0  0  0  0
  2  3  1  0  0  0  0
  2  4  1  0  0  0  0
  2 51  1  0  0  0  0
  4  5  2  0  0  0  0
  4  6  1  0  0  0  0
  6 10  1  0  0  0  0
  6  7  1  0  0  0  0
  7  8  1  0  0  0  0
  7 33  1  0  0  0  0
  7 34  1  0  0  0  0
  8  9  1  0  0  0  0
  8 35  1  0  0  0  0
  8 36  1  0  0  0  0
  9 10  1  0  0  0  0
  9 37  1  0  0  0  0
  9 38  1  0  0  0  0
 10 11  1  0  0  0  0
 10 12  1  0  0  0  0
 12 13  2  0  0  0  0
 12 50  1  0  0  0  0
 14 15  1  0  0  0  0
 14 16  1  0  0  0  0
 14 28  1  0  0  0  0
 14 51  1  0  0  0  0
 16 17  1  0  0  0  0
 16 39  1  0  0  0  0
 16 40  1  0  0  0  0
 17 18  1  0  0  0  0
 17 41  1  0  0  0  0
 17 42  1  0  0  0  0
 18 23  2  0  0  0  0
 18 19  1  0  0  0  0
 19 20  2  0  0  0  0
 19 43  1  0  0  0  0
 20 21  1  0  0  0  0
 20 44  1  0  0  0  0
 21 22  2  0  0  0  0
 21 45  1  0  0  0  0
 22 27  1  0  0  0  0
 22 23  1  0  0  0  0
 23 24  1  0  0  0  0
 24 25  2  0  0  0  0
 24 46  1  0  0  0  0
 25 26  1  0  0  0  0
 25 47  1  0  0  0  0
 26 27  2  0  0  0  0
 26 48  1  0  0  0  0
 27 49  1  0  0  0  0
 28 29  2  0  0  0  0
 28 54  1  0  0  0  0
 51 52  1  0  0  0  0
 51 53  1  0  0  0  0
M  CHG  3  50  -1  51   1  54  -1
M  END
$$$$
