ZINC03775164
  -OEChem-08230709403D

 45 46  0     1  0  0  0  0  0999 V2000
   -0.7339    1.9542    1.2689 C   0  0  0  0  0  0  0  0  0  0  0  0
   -0.0178    1.4608    0.0101 C   0  0  1  0  0  0  0  0  0  0  0  0
   -0.5450    1.8219   -0.8730 H   0  0  0  0  0  0  0  0  0  0  0  0
    1.3960    1.9824   -0.0006 C   0  0  0  0  0  0  0  0  0  0  0  0
    2.3284    1.2069   -0.0137 O   0  0  0  0  0  0  0  0  0  0  0  0
    1.6243    3.3107    0.0043 N   0  0  0  0  0  0  0  0  0  0  0  0
    0.5891    4.3603    0.0134 C   0  0  0  0  0  0  0  0  0  0  0  0
    1.2781    5.6052   -0.5936 C   0  0  0  0  0  0  0  0  0  0  0  0
    2.7152    5.4785   -0.0226 C   0  0  0  0  0  0  0  0  0  0  0  0
    2.9468    3.9529   -0.0048 C   0  0  1  0  0  0  0  0  0  0  0  0
    3.4991    3.6513   -0.8949 H   0  0  0  0  0  0  0  0  0  0  0  0
    3.7148    3.5622    1.2315 C   0  0  0  0  0  0  0  0  0  0  0  0
    3.2147    2.8215    2.0446 O   0  0  0  0  0  0  0  0  0  0  0  0
    0.0021   -0.0041    0.0020 N   0  0  0  0  0  0  0  0  0  0  0  0
   -1.0512   -0.6896   -0.4849 C   0  0  0  0  0  0  0  0  0  0  0  0
   -2.0154   -0.0939   -0.9164 O   0  0  0  0  0  0  0  0  0  0  0  0
   -1.0308   -2.1965   -0.4932 C   0  0  2  0  0  0  0  0  0  0  0  0
    0.0017   -2.5458   -0.5049 H   0  0  0  0  0  0  0  0  0  0  0  0
   -1.7569   -2.7095   -1.7383 C   0  0  0  0  0  0  0  0  0  0  0  0
   -1.6308   -4.2095   -1.8111 C   0  0  0  0  0  0  0  0  0  0  0  0
   -0.5681   -4.7819   -2.4847 C   0  0  0  0  0  0  0  0  0  0  0  0
   -0.4501   -6.1578   -2.5477 C   0  0  0  0  0  0  0  0  0  0  0  0
   -1.4000   -6.9612   -1.9452 C   0  0  0  0  0  0  0  0  0  0  0  0
   -2.4653   -6.3888   -1.2757 C   0  0  0  0  0  0  0  0  0  0  0  0
   -2.5810   -5.0130   -1.2090 C   0  0  0  0  0  0  0  0  0  0  0  0
   -1.8634   -2.8207    0.9926 S   0  0  0  0  0  0  0  0  0  0  0  0
   -0.7487    3.0441    1.2749 H   0  0  0  0  0  0  0  0  0  0  0  0
   -1.7565    1.5769    1.2766 H   0  0  0  0  0  0  0  0  0  0  0  0
   -0.2067    1.5931    2.1519 H   0  0  0  0  0  0  0  0  0  0  0  0
   -0.2609    4.0601   -0.5992 H   0  0  0  0  0  0  0  0  0  0  0  0
    0.2678    4.5674    1.0342 H   0  0  0  0  0  0  0  0  0  0  0  0
    0.8013    6.5237   -0.2514 H   0  0  0  0  0  0  0  0  0  0  0  0
    1.2842    5.5523   -1.6823 H   0  0  0  0  0  0  0  0  0  0  0  0
    2.7669    5.8882    0.9861 H   0  0  0  0  0  0  0  0  0  0  0  0
    3.4350    5.9702   -0.6771 H   0  0  0  0  0  0  0  0  0  0  0  0
    0.7733   -0.4806    0.3471 H   0  0  0  0  0  0  0  0  0  0  0  0
   -2.8105   -2.4357   -1.6832 H   0  0  0  0  0  0  0  0  0  0  0  0
   -1.3118   -2.2639   -2.6280 H   0  0  0  0  0  0  0  0  0  0  0  0
    0.1718   -4.1542   -2.9589 H   0  0  0  0  0  0  0  0  0  0  0  0
    0.3825   -6.6050   -3.0705 H   0  0  0  0  0  0  0  0  0  0  0  0
   -1.3096   -8.0362   -1.9973 H   0  0  0  0  0  0  0  0  0  0  0  0
   -3.2074   -7.0166   -0.8050 H   0  0  0  0  0  0  0  0  0  0  0  0
   -3.4135   -4.5658   -0.6862 H   0  0  0  0  0  0  0  0  0  0  0  0
   -3.1121   -2.3303    0.8961 H   0  0  0  0  0  0  0  0  0  0  0  0
    4.9546    4.0371    1.4295 O   0  5  0  0  0  0  0  0  0  0  0  0
  1  2  1  0  0  0  0
  1 27  1  0  0  0  0
  1 28  1  0  0  0  0
  1 29  1  0  0  0  0
  2  3  1  0  0  0  0
  2  4  1  0  0  0  0
  2 14  1  0  0  0  0
  4  5  2  0  0  0  0
  4  6  1  0  0  0  0
  6 10  1  0  0  0  0
  6  7  1  0  0  0  0
  7  8  1  0  0  0  0
  7 30  1  0  0  0  0
  7 31  1  0  0  0  0
  8  9  1  0  0  0  0
  8 32  1  0  0  0  0
  8 33  1  0  0  0  0
  9 10  1  0  0  0  0
  9 34  1  0  0  0  0
  9 35  1  0  0  0  0
 10 11  1  0  0  0  0
 10 12  1  0  0  0  0
 12 13  2  0  0  0  0
 12 45  1  0  0  0  0
 14 15  1  0  0  0  0
 14 36  1  0  0  0  0
 15 16  2  0  0  0  0
 15 17  1  0  0  0  0
 17 18  1  0  0  0  0
 17 19  1  0  0  0  0
 17 26  1  0  0  0  0
 19 20  1  0  0  0  0
 19 37  1  0  0  0  0
 19 38  1  0  0  0  0
 20 25  2  0  0  0  0
 20 21  1  0  0  0  0
 21 22  2  0  0  0  0
 21 39  1  0  0  0  0
 22 23  1  0  0  0  0
 22 40  1  0  0  0  0
 23 24  2  0  0  0  0
 23 41  1  0  0  0  0
 24 25  1  0  0  0  0
 24 42  1  0  0  0  0
 25 43  1  0  0  0  0
 26 44  1  0  0  0  0
M  CHG  1  45  -1
M  END
$$$$
