ZINC03812851
  -OEChem-08230709403D

 48 49  0     1  0  0  0  0  0999 V2000
   -2.4510    3.4208   -2.7790 C   0  0  0  0  0  0  0  0  0  0  0  0
   -2.4966    1.8932   -2.8517 C   0  0  1  0  0  0  0  0  0  0  0  0
   -1.8974    1.5517   -3.6958 H   0  0  0  0  0  0  0  0  0  0  0  0
   -1.9435    1.3128   -1.5757 C   0  0  0  0  0  0  0  0  0  0  0  0
   -2.6391    0.6021   -0.8814 O   0  0  0  0  0  0  0  0  0  0  0  0
   -0.6761    1.5836   -1.2060 N   0  0  0  0  0  0  0  0  0  0  0  0
    0.2750    2.4274   -1.9522 C   0  0  0  0  0  0  0  0  0  0  0  0
    1.6750    1.9390   -1.5038 C   0  0  0  0  0  0  0  0  0  0  0  0
    1.4312    1.6304   -0.0029 C   0  0  0  0  0  0  0  0  0  0  0  0
   -0.0127    1.0858    0.0080 C   0  0  1  0  0  0  0  0  0  0  0  0
    0.0021   -0.0041    0.0020 H   0  0  0  0  0  0  0  0  0  0  0  0
   -0.7382    1.5816    1.2323 C   0  0  0  0  0  0  0  0  0  0  0  0
   -1.7192    2.2768    1.1130 O   0  0  0  0  0  0  0  0  0  0  0  0
   -4.2684    1.4687   -4.4464 C   0  0  1  0  0  0  0  0  0  0  0  0
   -3.4096    1.1893   -5.0569 H   0  0  0  0  0  0  0  0  0  0  0  0
   -5.4058    0.4723   -4.6799 C   0  0  0  0  0  0  0  0  0  0  0  0
   -4.9029   -0.9476   -4.4121 C   0  0  0  0  0  0  0  0  0  0  0  0
   -6.0232   -1.9290   -4.6421 C   0  0  0  0  0  0  0  0  0  0  0  0
   -6.8581   -2.2818   -3.5984 C   0  0  0  0  0  0  0  0  0  0  0  0
   -7.8885   -3.1787   -3.8104 C   0  0  0  0  0  0  0  0  0  0  0  0
   -8.0783   -3.7297   -5.0639 C   0  0  0  0  0  0  0  0  0  0  0  0
   -7.2401   -3.3808   -6.1063 C   0  0  0  0  0  0  0  0  0  0  0  0
   -6.2125   -2.4807   -5.8954 C   0  0  0  0  0  0  0  0  0  0  0  0
   -4.7268    2.8527   -4.8277 C   0  0  0  0  0  0  0  0  0  0  0  0
   -4.7348    3.7352   -4.0024 O   0  0  0  0  0  0  0  0  0  0  0  0
   -1.4195    3.7478   -2.6482 H   0  0  0  0  0  0  0  0  0  0  0  0
   -2.8510    3.8406   -3.7019 H   0  0  0  0  0  0  0  0  0  0  0  0
   -3.0502    3.7624   -1.9349 H   0  0  0  0  0  0  0  0  0  0  0  0
    0.1374    3.4766   -1.6904 H   0  0  0  0  0  0  0  0  0  0  0  0
    0.1494    2.2854   -3.0256 H   0  0  0  0  0  0  0  0  0  0  0  0
    2.4203    2.7250   -1.6250 H   0  0  0  0  0  0  0  0  0  0  0  0
    1.9667    1.0391   -2.0453 H   0  0  0  0  0  0  0  0  0  0  0  0
    1.5052    2.5390    0.5947 H   0  0  0  0  0  0  0  0  0  0  0  0
    2.1310    0.8747    0.3541 H   0  0  0  0  0  0  0  0  0  0  0  0
   -6.2313    0.6987   -4.0052 H   0  0  0  0  0  0  0  0  0  0  0  0
   -5.7487    0.5477   -5.7118 H   0  0  0  0  0  0  0  0  0  0  0  0
   -4.0773   -1.1740   -5.0868 H   0  0  0  0  0  0  0  0  0  0  0  0
   -4.5599   -1.0231   -3.3802 H   0  0  0  0  0  0  0  0  0  0  0  0
   -6.7075   -1.8542   -2.6181 H   0  0  0  0  0  0  0  0  0  0  0  0
   -8.5435   -3.4510   -2.9960 H   0  0  0  0  0  0  0  0  0  0  0  0
   -8.8816   -4.4324   -5.2289 H   0  0  0  0  0  0  0  0  0  0  0  0
   -7.3884   -3.8113   -7.0857 H   0  0  0  0  0  0  0  0  0  0  0  0
   -5.5576   -2.2081   -6.7098 H   0  0  0  0  0  0  0  0  0  0  0  0
   -0.2947    1.2509    2.4552 O   0  5  0  0  0  0  0  0  0  0  0  0
   -3.8933    1.4497   -3.0199 N   0  3  0  0  0  0  0  0  0  0  0  0
   -4.5139    2.0796   -2.4981 H   0  0  0  0  0  0  0  0  0  0  0  0
   -3.9913    0.4943   -2.6566 H   0  0  0  0  0  0  0  0  0  0  0  0
   -5.1261    3.1051   -6.0841 O   0  5  0  0  0  0  0  0  0  0  0  0
  1  2  1  0  0  0  0
  1 26  1  0  0  0  0
  1 27  1  0  0  0  0
  1 28  1  0  0  0  0
  2  3  1  0  0  0  0
  2  4  1  0  0  0  0
  2 45  1  0  0  0  0
  4  5  2  0  0  0  0
  4  6  1  0  0  0  0
  6 10  1  0  0  0  0
  6  7  1  0  0  0  0
  7  8  1  0  0  0  0
  7 29  1  0  0  0  0
  7 30  1  0  0  0  0
  8  9  1  0  0  0  0
  8 31  1  0  0  0  0
  8 32  1  0  0  0  0
  9 10  1  0  0  0  0
  9 33  1  0  0  0  0
  9 34  1  0  0  0  0
 10 11  1  0  0  0  0
 10 12  1  0  0  0  0
 12 13  2  0  0  0  0
 12 44  1  0  0  0  0
 14 15  1  0  0  0  0
 14 16  1  0  0  0  0
 14 24  1  0  0  0  0
 14 45  1  0  0  0  0
 16 17  1  0  0  0  0
 16 35  1  0  0  0  0
 16 36  1  0  0  0  0
 17 18  1  0  0  0  0
 17 37  1  0  0  0  0
 17 38  1  0  0  0  0
 18 23  2  0  0  0  0
 18 19  1  0  0  0  0
 19 20  2  0  0  0  0
 19 39  1  0  0  0  0
 20 21  1  0  0  0  0
 20 40  1  0  0  0  0
 21 22  2  0  0  0  0
 21 41  1  0  0  0  0
 22 23  1  0  0  0  0
 22 42  1  0  0  0  0
 23 43  1  0  0  0  0
 24 25  2  0  0  0  0
 24 48  1  0  0  0  0
 45 46  1  0  0  0  0
 45 47  1  0  0  0  0
M  CHG  3  44  -1  45   1  48  -1
M  END
$$$$
