
  ACD/Labs07171520373D

 76 80  0  0  0  0  0  0  0  0  1 V2000
   25.3683   -5.1142    4.2991 C   0  0  0  0  0  0  0  0  0  0  0  0
   26.4731   -4.3991    5.0904 C   0  0  0  0  0  0  0  0  0  0  0  0
   27.7070   -4.5276    4.3922 O   0  0  0  0  0  0  0  0  0  0  0  0
   28.0994   -5.8941    4.3070 C   0  0  0  0  0  0  0  0  0  0  0  0
   27.0582   -6.6540    3.4792 C   0  0  0  0  0  0  0  0  0  0  0  0
   25.7353   -6.5303    4.1190 N   0  0  0  0  0  0  0  0  0  0  0  0
   24.7611   -7.1631    3.2214 C   0  0  0  0  0  0  0  0  0  0  0  0
   24.0747   -8.3676    3.8717 C   0  0  0  0  0  0  0  0  0  0  0  0
   23.6755   -9.2003    2.7911 O   0  0  0  0  0  0  0  0  0  0  0  0
   22.5111   -9.8996    2.6640 C   0  0  0  0  0  0  0  0  0  0  0  0
   21.3651   -9.5597    3.3722 C   0  0  0  0  0  0  0  0  0  0  0  0
   20.1946  -10.2869    3.1936 C   0  0  0  0  0  0  0  0  0  0  0  0
   22.4818  -10.9663    1.7825 C   0  0  0  0  0  0  0  0  0  0  0  0
   23.6167  -11.3045    1.0626 C   0  0  0  0  0  0  0  0  0  0  0  0
   23.5827  -12.3670    0.1719 C   0  0  0  0  0  0  0  0  0  0  0  0
   22.4145  -13.0928    0.0000 C   0  0  0  0  0  0  0  0  0  0  0  0
   21.2799  -12.7573    0.7202 C   0  0  0  0  0  0  0  0  0  0  0  0
   21.3120  -11.6951    1.6085 C   0  0  0  0  0  0  0  0  0  0  0  0
   20.1699  -11.3592    2.3100 C   0  0  0  0  0  0  0  0  0  0  0  0
   19.0028  -12.1202    2.0718 N   0  0  0  0  0  0  0  0  0  0  0  0
   17.7242  -11.7252    2.4090 C   0  0  0  0  0  0  0  0  0  0  0  0
   17.5399  -10.6513    2.9336 O   0  0  0  0  0  0  0  0  0  0  0  0
   16.6549  -12.5310    2.0649 N   0  0  0  0  0  0  0  0  0  0  0  0
   15.3589  -11.9822    1.9420 C   0  0  0  0  0  0  0  0  0  0  0  0
   15.0493  -10.6487    2.0572 C   0  0  0  0  0  0  0  0  0  0  0  0
   13.6946  -10.6319    1.8151 C   0  0  0  0  0  0  0  0  0  0  0  0
   12.8252   -9.3940    1.7961 C   0  0  0  0  0  0  0  0  0  0  0  0
   11.3675   -9.7961    2.0287 C   0  0  0  0  0  0  0  0  0  0  0  0
   12.9477   -8.7057    0.4331 C   0  0  0  0  0  0  0  0  0  0  0  0
   13.2683   -8.4292    2.8993 C   0  0  0  0  0  0  0  0  0  0  0  0
   13.2528  -11.8776    1.5792 N   0  0  0  0  0  0  0  0  0  0  0  0
   14.2332  -12.6577    1.6595 N   0  0  0  0  0  0  0  0  0  0  0  0
   14.1295  -14.1097    1.4462 C   0  0  0  0  0  0  0  0  0  0  0  0
   12.9236  -14.6410    1.0170 C   0  0  0  0  0  0  0  0  0  0  0  0
   12.7983  -16.0047    0.8064 C   0  0  0  0  0  0  0  0  0  0  0  0
   13.8831  -16.8385    1.0241 C   0  0  0  0  0  0  0  0  0  0  0  0
   13.7490  -18.3255    0.7933 C   0  0  0  0  0  0  0  0  0  0  0  0
   15.0895  -16.3084    1.4534 C   0  0  0  0  0  0  0  0  0  0  0  0
   15.2144  -14.9445    1.6658 C   0  0  0  0  0  0  0  0  0  0  0  0
   25.2596   -4.6946    3.3979 H   0  0  0  0  0  0  0  0  0  0  0  0
   24.5012   -5.0689    4.7952 H   0  0  0  0  0  0  0  0  0  0  0  0
   26.5869   -4.8068    5.9963 H   0  0  0  0  0  0  0  0  0  0  0  0
   26.2724   -3.4241    5.1859 H   0  0  0  0  0  0  0  0  0  0  0  0
   28.1577   -6.2605    5.2356 H   0  0  0  0  0  0  0  0  0  0  0  0
   29.0006   -5.9336    3.8753 H   0  0  0  0  0  0  0  0  0  0  0  0
   27.2990   -7.6231    3.4261 H   0  0  0  0  0  0  0  0  0  0  0  0
   27.0047   -6.2724    2.5564 H   0  0  0  0  0  0  0  0  0  0  0  0
   25.2474   -7.4562    2.3982 H   0  0  0  0  0  0  0  0  0  0  0  0
   24.0766   -6.4761    2.9779 H   0  0  0  0  0  0  0  0  0  0  0  0
   23.2654   -8.0978    4.3935 H   0  0  0  0  0  0  0  0  0  0  0  0
   24.6992   -8.8768    4.4640 H   0  0  0  0  0  0  0  0  0  0  0  0
   21.3828   -8.7907    4.0112 H   0  0  0  0  0  0  0  0  0  0  0  0
   19.3696  -10.0384    3.7012 H   0  0  0  0  0  0  0  0  0  0  0  0
   24.4602  -10.7818    1.1858 H   0  0  0  0  0  0  0  0  0  0  0  0
   24.4020  -12.6102   -0.3473 H   0  0  0  0  0  0  0  0  0  0  0  0
   22.3902  -13.8581   -0.6432 H   0  0  0  0  0  0  0  0  0  0  0  0
   20.4373  -13.2820    0.5987 H   0  0  0  0  0  0  0  0  0  0  0  0
   19.0889  -13.0121    1.6278 H   0  0  0  0  0  0  0  0  0  0  0  0
   16.8179  -13.5048    1.9060 H   0  0  0  0  0  0  0  0  0  0  0  0
   15.6575   -9.8826    2.2651 H   0  0  0  0  0  0  0  0  0  0  0  0
   11.1884   -9.8455    3.0114 H   0  0  0  0  0  0  0  0  0  0  0  0
   11.1984  -10.6902    1.6138 H   0  0  0  0  0  0  0  0  0  0  0  0
   10.7639   -9.1151    1.6138 H   0  0  0  0  0  0  0  0  0  0  0  0
   13.1215   -7.7300    0.5671 H   0  0  0  0  0  0  0  0  0  0  0  0
   12.0965   -8.8255   -0.0782 H   0  0  0  0  0  0  0  0  0  0  0  0
   13.7052   -9.1120   -0.0782 H   0  0  0  0  0  0  0  0  0  0  0  0
   13.0811   -8.8368    3.7931 H   0  0  0  0  0  0  0  0  0  0  0  0
   12.7639   -7.5699    2.8126 H   0  0  0  0  0  0  0  0  0  0  0  0
   14.2487   -8.2519    2.8126 H   0  0  0  0  0  0  0  0  0  0  0  0
   12.1413  -14.0386    0.8587 H   0  0  0  0  0  0  0  0  0  0  0  0
   11.9269  -16.3862    0.4979 H   0  0  0  0  0  0  0  0  0  0  0  0
   13.7066  -18.7967    1.6744 H   0  0  0  0  0  0  0  0  0  0  0  0
   14.5397  -18.6550    0.2770 H   0  0  0  0  0  0  0  0  0  0  0  0
   12.9123  -18.5083    0.2770 H   0  0  0  0  0  0  0  0  0  0  0  0
   15.8717  -16.9114    1.6103 H   0  0  0  0  0  0  0  0  0  0  0  0
   16.0852  -14.5637    1.9768 H   0  0  0  0  0  0  0  0  0  0  0  0
  1  2  1  0  0  0  0
  1  6  1  0  0  0  0
  2  3  1  0  0  0  0
  3  4  1  0  0  0  0
  4  5  1  0  0  0  0
  5  6  1  0  0  0  0
  6  7  1  0  0  0  0
  7  8  1  0  0  0  0
  8  9  1  0  0  0  0
  9 10  1  0  0  0  0
 10 11  2  0  0  0  0
 10 13  1  0  0  0  0
 11 12  1  0  0  0  0
 12 19  2  0  0  0  0
 13 14  1  0  0  0  0
 13 18  2  0  0  0  0
 14 15  2  0  0  0  0
 15 16  1  0  0  0  0
 16 17  2  0  0  0  0
 17 18  1  0  0  0  0
 18 19  1  0  0  0  0
 19 20  1  0  0  0  0
 20 21  1  0  0  0  0
 21 22  2  0  0  0  0
 21 23  1  0  0  0  0
 23 24  1  0  0  0  0
 24 25  2  0  0  0  0
 24 32  1  0  0  0  0
 25 26  1  0  0  0  0
 26 27  1  0  0  0  0
 26 31  2  0  0  0  0
 27 28  1  0  0  0  0
 27 29  1  0  0  0  0
 27 30  1  0  0  0  0
 31 32  1  0  0  0  0
 32 33  1  0  0  0  0
 33 34  2  0  0  0  0
 33 39  1  0  0  0  0
 34 35  1  0  0  0  0
 35 36  2  0  0  0  0
 36 37  1  0  0  0  0
 36 38  1  0  0  0  0
 38 39  2  0  0  0  0
 40  1  1  0  0  0  0
 41  1  1  0  0  0  0
 42  2  1  0  0  0  0
 43  2  1  0  0  0  0
 44  4  1  0  0  0  0
 45  4  1  0  0  0  0
 46  5  1  0  0  0  0
 47  5  1  0  0  0  0
 48  7  1  0  0  0  0
 49  7  1  0  0  0  0
 50  8  1  0  0  0  0
 51  8  1  0  0  0  0
 52 11  1  0  0  0  0
 53 12  1  0  0  0  0
 54 14  1  0  0  0  0
 55 15  1  0  0  0  0
 56 16  1  0  0  0  0
 57 17  1  0  0  0  0
 58 20  1  0  0  0  0
 59 23  1  0  0  0  0
 60 25  1  0  0  0  0
 61 28  1  0  0  0  0
 62 28  1  0  0  0  0
 63 28  1  0  0  0  0
 64 29  1  0  0  0  0
 65 29  1  0  0  0  0
 66 29  1  0  0  0  0
 67 30  1  0  0  0  0
 68 30  1  0  0  0  0
 69 30  1  0  0  0  0
 70 34  1  0  0  0  0
 71 35  1  0  0  0  0
 72 37  1  0  0  0  0
 73 37  1  0  0  0  0
 74 37  1  0  0  0  0
 75 38  1  0  0  0  0
 76 39  1  0  0  0  0
M  END
