
  ACD/Labs07171520373D

 49 51  0  0  0  0  0  0  0  0  2 V2000
   17.0398  -14.6382   -0.9675 C   0  0  0  0  0  0  0  0  0  0  0  0
   17.5873  -14.3359    0.4289 C   0  0  0  0  0  0  0  0  0  0  0  0
   18.4236  -15.5208    0.9163 C   0  0  0  0  0  0  0  0  0  0  0  0
   16.4230  -14.1022    1.3936 C   0  0  0  0  0  0  0  0  0  0  0  0
   18.4497  -13.1013    0.3739 C   0  0  0  0  0  0  0  0  0  0  0  0
   17.9878  -11.7865    0.2653 C   0  0  0  0  0  0  0  0  0  0  0  0
   19.0715  -10.9631    0.2466 C   0  0  0  0  0  0  0  0  0  0  0  0
   20.1807  -11.7466    0.3356 N   0  0  0  0  0  0  0  0  0  0  0  0
   19.7574  -13.0792    0.4192 N   0  0  0  0  0  0  0  0  0  0  0  0
   21.5091  -11.2997    0.3446 C   0  0  0  0  0  0  0  0  0  0  0  0
   21.8781  -10.1994   -0.4177 C   0  0  0  0  0  0  0  0  0  0  0  0
   23.1867   -9.7579   -0.4023 C   0  0  0  0  0  0  0  0  0  0  0  0
   24.1313  -10.4172    0.3627 C   0  0  0  0  0  0  0  0  0  0  0  0
   23.7682  -11.5170    1.1182 C   0  0  0  0  0  0  0  0  0  0  0  0
   22.4599  -11.9598    1.1114 C   0  0  0  0  0  0  0  0  0  0  0  0
   25.5341   -9.9449    0.3726 N   0  3  0  0  0  0  0  0  0  0  0  0
   26.3672  -10.5249    1.0457 O   0  0  0  0  0  0  0  0  0  0  0  0
   25.8553   -8.9763   -0.2923 O   0  5  0  0  0  0  0  0  0  0  0  0
   19.0495   -9.5722    0.1481 N   0  0  0  0  0  0  0  0  0  0  0  0
   17.8725   -8.9214    0.0604 C   0  0  0  0  0  0  0  0  0  0  0  0
   16.8299   -9.5470    0.0672 O   0  0  0  0  0  0  0  0  0  0  0  0
   17.8511   -7.5772   -0.0348 N   0  0  0  0  0  0  0  0  0  0  0  0
   16.6302   -6.8928   -0.0071 C   0  0  0  0  0  0  0  0  0  0  0  0
   15.5257   -7.4651    0.6099 C   0  0  0  0  0  0  0  0  0  0  0  0
   14.3222   -6.7878    0.6364 C   0  0  0  0  0  0  0  0  0  0  0  0
   14.2155   -5.5402    0.0498 C   0  0  0  0  0  0  0  0  0  0  0  0
   15.3134   -4.9659   -0.5662 C   0  0  0  0  0  0  0  0  0  0  0  0
   16.5213   -5.6395   -0.5965 C   0  0  0  0  0  0  0  0  0  0  0  0
   17.8993   -4.9193   -1.3687 Cl  0  0  0  0  0  0  0  0  0  0  0  0
   15.1749   -3.3994   -1.3014 Cl  0  0  0  0  0  0  0  0  0  0  0  0
   17.8693  -14.8048   -1.6548 H   0  0  0  0  0  0  0  0  0  0  0  0
   16.4161  -15.5312   -0.9277 H   0  0  0  0  0  0  0  0  0  0  0  0
   16.4441  -13.7941   -1.3148 H   0  0  0  0  0  0  0  0  0  0  0  0
   18.8136  -15.3054    1.9111 H   0  0  0  0  0  0  0  0  0  0  0  0
   17.7998  -16.4138    0.9561 H   0  0  0  0  0  0  0  0  0  0  0  0
   19.2530  -15.6873    0.2291 H   0  0  0  0  0  0  0  0  0  0  0  0
   15.8273  -13.2581    1.0463 H   0  0  0  0  0  0  0  0  0  0  0  0
   15.7993  -14.9952    1.4334 H   0  0  0  0  0  0  0  0  0  0  0  0
   16.8131  -13.8868    2.3884 H   0  0  0  0  0  0  0  0  0  0  0  0
   16.9543  -11.4785    0.2068 H   0  0  0  0  0  0  0  0  0  0  0  0
   21.1416   -9.6866   -1.0186 H   0  0  0  0  0  0  0  0  0  0  0  0
   23.4734   -8.8997   -0.9919 H   0  0  0  0  0  0  0  0  0  0  0  0
   24.5083  -12.0301    1.7144 H   0  0  0  0  0  0  0  0  0  0  0  0
   22.1769  -12.8188    1.7016 H   0  0  0  0  0  0  0  0  0  0  0  0
   19.8812   -9.0731    0.1426 H   0  0  0  0  0  0  0  0  0  0  0  0
   18.6818   -7.0839   -0.1225 H   0  0  0  0  0  0  0  0  0  0  0  0
   15.6076   -8.4394    1.0686 H   0  0  0  0  0  0  0  0  0  0  0  0
   13.4634   -7.2332    1.1164 H   0  0  0  0  0  0  0  0  0  0  0  0
   13.2720   -5.0149    0.0685 H   0  0  0  0  0  0  0  0  0  0  0  0
  1  2  1  0  0  0  0
  1 31  1  0  0  0  0
  1 32  1  0  0  0  0
  1 33  1  0  0  0  0
  2  3  1  0  0  0  0
  2  4  1  0  0  0  0
  2  5  1  0  0  0  0
  3 34  1  0  0  0  0
  3 35  1  0  0  0  0
  3 36  1  0  0  0  0
  4 37  1  0  0  0  0
  4 38  1  0  0  0  0
  4 39  1  0  0  0  0
  5  9  2  0  0  0  0
  5  6  1  0  0  0  0
  6  7  2  0  0  0  0
  6 40  1  0  0  0  0
  7  8  1  0  0  0  0
  7 19  1  0  0  0  0
  8  9  1  0  0  0  0
  8 10  1  0  0  0  0
 10 15  2  0  0  0  0
 10 11  1  0  0  0  0
 11 12  2  0  0  0  0
 11 41  1  0  0  0  0
 12 13  1  0  0  0  0
 12 42  1  0  0  0  0
 13 14  2  0  0  0  0
 13 16  1  0  0  0  0
 14 15  1  0  0  0  0
 14 43  1  0  0  0  0
 15 44  1  0  0  0  0
 16 17  2  0  0  0  0
 16 18  1  0  0  0  0
 19 20  1  0  0  0  0
 19 45  1  0  0  0  0
 20 21  2  0  0  0  0
 20 22  1  0  0  0  0
 22 23  1  0  0  0  0
 22 46  1  0  0  0  0
 23 28  2  0  0  0  0
 23 24  1  0  0  0  0
 24 25  2  0  0  0  0
 24 47  1  0  0  0  0
 25 26  1  0  0  0  0
 25 48  1  0  0  0  0
 26 27  2  0  0  0  0
 26 49  1  0  0  0  0
 27 28  1  0  0  0  0
 27 30  1  0  0  0  0
 28 29  1  0  0  0  0
M  CHG  2  16   1  18  -1
M  END
