
  ACD/Labs07171520383D

 44 47  0  0  0  0  0  0  0  0  2 V2000
   15.1844   -4.2898   -0.5774 C   0  0  0  0  0  0  0  0  0  0  0  0
   14.9682   -5.4577    0.7937 S   0  0  0  0  0  0  0  0  0  0  0  0
   14.4082   -4.7794    1.9098 O   0  0  0  0  0  0  0  0  0  0  0  0
   16.6142   -5.8279    1.3019 C   0  0  0  0  0  0  0  0  0  0  0  0
   17.2260   -5.0578    2.2753 C   0  0  0  0  0  0  0  0  0  0  0  0
   18.5182   -5.3415    2.6796 C   0  0  0  0  0  0  0  0  0  0  0  0
   19.2056   -6.3956    2.1137 C   0  0  0  0  0  0  0  0  0  0  0  0
   18.5943   -7.1765    1.1319 C   0  0  0  0  0  0  0  0  0  0  0  0
   17.2920   -6.8815    0.7247 C   0  0  0  0  0  0  0  0  0  0  0  0
   19.3249   -8.3075    0.5213 C   0  0  0  0  0  0  0  0  0  0  0  0
   20.5957   -8.6902    0.8365 N   0  0  0  0  0  0  0  0  0  0  0  0
   21.1932   -8.2633    1.5153 H   0  0  0  0  0  0  0  0  0  0  0  0
   20.9015   -9.7743    0.0449 C   0  0  0  0  0  0  0  0  0  0  0  0
   19.7800  -10.0206   -0.7303 C   0  0  0  0  0  0  0  0  0  0  0  0
   19.6324  -11.0989   -1.7358 C   0  0  0  0  0  0  0  0  0  0  0  0
   20.7255  -11.4887   -2.5090 C   0  0  0  0  0  0  0  0  0  0  0  0
   20.5843  -12.4961   -3.4408 C   0  0  0  0  0  0  0  0  0  0  0  0
   19.3563  -13.1138   -3.6158 C   0  0  0  0  0  0  0  0  0  0  0  0
   18.2660  -12.7264   -2.8536 C   0  0  0  0  0  0  0  0  0  0  0  0
   18.3985  -11.7233   -1.9159 C   0  0  0  0  0  0  0  0  0  0  0  0
   19.2217  -14.0967   -4.5329 F   0  0  0  0  0  0  0  0  0  0  0  0
   22.1693  -10.5279    0.0297 C   0  0  0  0  0  0  0  0  0  0  0  0
   22.1744  -11.9296    0.0173 C   0  0  0  0  0  0  0  0  0  0  0  0
   23.3826  -12.5928    0.0080 C   0  0  0  0  0  0  0  0  0  0  0  0
   24.5221  -11.9264    0.0007 N   0  0  0  0  0  0  0  0  0  0  0  0
   24.5630  -10.6071    0.0069 C   0  0  0  0  0  0  0  0  0  0  0  0
   23.4031   -9.8626    0.0215 C   0  0  0  0  0  0  0  0  0  0  0  0
   15.7623   -4.7638   -1.3707 H   0  0  0  0  0  0  0  0  0  0  0  0
   14.2077   -3.9983   -0.9638 H   0  0  0  0  0  0  0  0  0  0  0  0
   15.7130   -3.4055   -0.2215 H   0  0  0  0  0  0  0  0  0  0  0  0
   16.6924   -4.2314    2.7211 H   0  0  0  0  0  0  0  0  0  0  0  0
   18.9901   -4.7364    3.4395 H   0  0  0  0  0  0  0  0  0  0  0  0
   20.2144   -6.6160    2.4302 H   0  0  0  0  0  0  0  0  0  0  0  0
   16.8151   -7.4790   -0.0382 H   0  0  0  0  0  0  0  0  0  0  0  0
   21.6820  -11.0050   -2.3762 H   0  0  0  0  0  0  0  0  0  0  0  0
   21.4313  -12.8015   -4.0373 H   0  0  0  0  0  0  0  0  0  0  0  0
   17.3107  -13.2103   -2.9940 H   0  0  0  0  0  0  0  0  0  0  0  0
   17.5480  -11.4218   -1.3225 H   0  0  0  0  0  0  0  0  0  0  0  0
   21.2460  -12.4814    0.0191 H   0  0  0  0  0  0  0  0  0  0  0  0
   23.3973  -13.6727    0.0020 H   0  0  0  0  0  0  0  0  0  0  0  0
   25.5186  -10.1039    0.0002 H   0  0  0  0  0  0  0  0  0  0  0  0
   23.4442   -8.7834    0.0269 H   0  0  0  0  0  0  0  0  0  0  0  0
   18.8508   -9.1075   -0.4075 N   0  3  0  0  0  0  0  0  0  0  0  0
   17.9137   -9.0437   -0.8223 H   0  0  0  0  0  0  0  0  0  0  0  0
  1  2  1  0  0  0  0
  1 28  1  0  0  0  0
  1 29  1  0  0  0  0
  1 30  1  0  0  0  0
  2  3  2  0  0  0  0
  2  4  1  0  0  0  0
  4  9  2  0  0  0  0
  4  5  1  0  0  0  0
  5  6  2  0  0  0  0
  5 31  1  0  0  0  0
  6  7  1  0  0  0  0
  6 32  1  0  0  0  0
  7  8  2  0  0  0  0
  7 33  1  0  0  0  0
  8  9  1  0  0  0  0
  8 10  1  0  0  0  0
  9 34  1  0  0  0  0
 10 11  1  0  0  0  0
 10 43  2  0  0  0  0
 11 12  1  0  0  0  0
 11 13  1  0  0  0  0
 13 14  2  0  0  0  0
 13 22  1  0  0  0  0
 14 15  1  0  0  0  0
 14 43  1  0  0  0  0
 15 20  2  0  0  0  0
 15 16  1  0  0  0  0
 16 17  2  0  0  0  0
 16 35  1  0  0  0  0
 17 18  1  0  0  0  0
 17 36  1  0  0  0  0
 18 19  2  0  0  0  0
 18 21  1  0  0  0  0
 19 20  1  0  0  0  0
 19 37  1  0  0  0  0
 20 38  1  0  0  0  0
 22 27  2  0  0  0  0
 22 23  1  0  0  0  0
 23 24  2  0  0  0  0
 23 39  1  0  0  0  0
 24 25  1  0  0  0  0
 24 40  1  0  0  0  0
 25 26  2  0  0  0  0
 26 27  1  0  0  0  0
 26 41  1  0  0  0  0
 27 42  1  0  0  0  0
 43 44  1  0  0  0  0
M  CHG  1  43   1
M  END
