
  ACD/Labs07171520383D

 46 49  0  0  0  0  0  0  0  0  1 V2000
   25.8523   -5.5246   -1.8136 C   0  0  0  0  0  0  0  0  0  0  0  0
   25.1704   -6.5140   -0.9042 C   0  0  0  0  0  0  0  0  0  0  0  0
   23.7966   -6.6255   -0.9292 C   0  0  0  0  0  0  0  0  0  0  0  0
   23.1744   -7.5452   -0.0739 C   0  0  0  0  0  0  0  0  0  0  0  0
   23.9865   -8.3222    0.7641 C   0  0  0  0  0  0  0  0  0  0  0  0
   25.3528   -8.1484    0.7182 C   0  0  0  0  0  0  0  0  0  0  0  0
   25.8972   -7.2658   -0.0988 N   0  0  0  0  0  0  0  0  0  0  0  0
   21.7073   -7.6956   -0.0603 C   0  0  0  0  0  0  0  0  0  0  0  0
   20.9945   -8.8836   -0.0598 C   0  0  0  0  0  0  0  0  0  0  0  0
   19.6884   -8.5764   -0.0404 N   0  0  0  0  0  0  0  0  0  0  0  0
   19.5433   -7.2706   -0.0373 C   0  0  0  0  0  0  0  0  0  0  0  0
   20.7743   -6.6832   -0.0459 N   0  0  0  0  0  0  0  0  0  0  0  0
   20.9637   -5.7013   -0.0424 H   0  0  0  0  0  0  0  0  0  0  0  0
   18.2512   -6.5522   -0.0207 C   0  0  0  0  0  0  0  0  0  0  0  0
   17.0521   -7.2665   -0.0131 C   0  0  0  0  0  0  0  0  0  0  0  0
   15.8499   -6.5900    0.0020 C   0  0  0  0  0  0  0  0  0  0  0  0
   15.8311   -5.2065    0.0096 C   0  0  0  0  0  0  0  0  0  0  0  0
   17.0162   -4.4924    0.0021 C   0  0  0  0  0  0  0  0  0  0  0  0
   18.2252   -5.1567   -0.0129 C   0  0  0  0  0  0  0  0  0  0  0  0
   14.2912   -4.3503    0.0215 S   0  0  0  0  0  0  0  0  0  0  0  0
   13.3788   -5.2758   -0.5530 O   0  0  0  0  0  0  0  0  0  0  0  0
   13.9160   -4.1466    1.7846 C   0  0  0  0  0  0  0  0  0  0  0  0
   21.5710  -10.2485   -0.0727 C   0  0  0  0  0  0  0  0  0  0  0  0
   22.7438  -10.5058   -0.7820 C   0  0  0  0  0  0  0  0  0  0  0  0
   23.2796  -11.7770   -0.7866 C   0  0  0  0  0  0  0  0  0  0  0  0
   22.6485  -12.7998   -0.0970 C   0  0  0  0  0  0  0  0  0  0  0  0
   21.4801  -12.5502    0.6049 C   0  0  0  0  0  0  0  0  0  0  0  0
   20.9395  -11.2811    0.6199 C   0  0  0  0  0  0  0  0  0  0  0  0
   23.1737  -14.0445   -0.1094 F   0  0  0  0  0  0  0  0  0  0  0  0
   26.0839   -6.0047   -2.7644 H   0  0  0  0  0  0  0  0  0  0  0  0
   25.1915   -4.6752   -1.9869 H   0  0  0  0  0  0  0  0  0  0  0  0
   26.7746   -5.1782   -1.3473 H   0  0  0  0  0  0  0  0  0  0  0  0
   23.2086   -6.0106   -1.5944 H   0  0  0  0  0  0  0  0  0  0  0  0
   23.5480   -9.0457    1.4355 H   0  0  0  0  0  0  0  0  0  0  0  0
   25.9870   -8.7421    1.3598 H   0  0  0  0  0  0  0  0  0  0  0  0
   17.0654   -8.3464   -0.0194 H   0  0  0  0  0  0  0  0  0  0  0  0
   14.9213   -7.1415    0.0075 H   0  0  0  0  0  0  0  0  0  0  0  0
   16.9946   -3.4127    0.0081 H   0  0  0  0  0  0  0  0  0  0  0  0
   19.1495   -4.5981   -0.0184 H   0  0  0  0  0  0  0  0  0  0  0  0
   14.7096   -3.5709    2.2608 H   0  0  0  0  0  0  0  0  0  0  0  0
   12.9682   -3.6199    1.8958 H   0  0  0  0  0  0  0  0  0  0  0  0
   13.8446   -5.1266    2.2565 H   0  0  0  0  0  0  0  0  0  0  0  0
   23.2340   -9.7102   -1.3235 H   0  0  0  0  0  0  0  0  0  0  0  0
   24.1898  -11.9764   -1.3326 H   0  0  0  0  0  0  0  0  0  0  0  0
   20.9918  -13.3506    1.1410 H   0  0  0  0  0  0  0  0  0  0  0  0
   20.0285  -11.0877    1.1667 H   0  0  0  0  0  0  0  0  0  0  0  0
  1  2  1  0  0  0  0
  1 30  1  0  0  0  0
  1 31  1  0  0  0  0
  1 32  1  0  0  0  0
  2  7  2  0  0  0  0
  2  3  1  0  0  0  0
  3  4  2  0  0  0  0
  3 33  1  0  0  0  0
  4  5  1  0  0  0  0
  4  8  1  0  0  0  0
  5  6  2  0  0  0  0
  5 34  1  0  0  0  0
  6  7  1  0  0  0  0
  6 35  1  0  0  0  0
  8 12  1  0  0  0  0
  8  9  2  0  0  0  0
  9 10  1  0  0  0  0
  9 23  1  0  0  0  0
 10 11  2  0  0  0  0
 11 12  1  0  0  0  0
 11 14  1  0  0  0  0
 12 13  1  0  0  0  0
 14 19  2  0  0  0  0
 14 15  1  0  0  0  0
 15 16  2  0  0  0  0
 15 36  1  0  0  0  0
 16 17  1  0  0  0  0
 16 37  1  0  0  0  0
 17 18  2  0  0  0  0
 17 20  1  0  0  0  0
 18 19  1  0  0  0  0
 18 38  1  0  0  0  0
 19 39  1  0  0  0  0
 20 21  2  0  0  0  0
 20 22  1  0  0  0  0
 22 40  1  0  0  0  0
 22 41  1  0  0  0  0
 22 42  1  0  0  0  0
 23 28  2  0  0  0  0
 23 24  1  0  0  0  0
 24 25  2  0  0  0  0
 24 43  1  0  0  0  0
 25 26  1  0  0  0  0
 25 44  1  0  0  0  0
 26 27  2  0  0  0  0
 26 29  1  0  0  0  0
 27 28  1  0  0  0  0
 27 45  1  0  0  0  0
 28 46  1  0  0  0  0
M  END
