
  ACD/Labs07171520383D

 43 46  0  0  0  0  0  0  0  0  1 V2000
   15.2004   -4.3058   -0.5774 C   0  0  0  0  0  0  0  0  0  0  0  0
   14.9842   -5.4737    0.7937 S   0  0  0  0  0  0  0  0  0  0  0  0
   14.4242   -4.7954    1.9098 O   0  0  0  0  0  0  0  0  0  0  0  0
   16.6302   -5.8439    1.3019 C   0  0  0  0  0  0  0  0  0  0  0  0
   17.2420   -5.0738    2.2753 C   0  0  0  0  0  0  0  0  0  0  0  0
   18.5342   -5.3575    2.6796 C   0  0  0  0  0  0  0  0  0  0  0  0
   19.2216   -6.4116    2.1137 C   0  0  0  0  0  0  0  0  0  0  0  0
   18.6103   -7.1925    1.1319 C   0  0  0  0  0  0  0  0  0  0  0  0
   17.3080   -6.8975    0.7247 C   0  0  0  0  0  0  0  0  0  0  0  0
   19.3409   -8.3235    0.5213 C   0  0  0  0  0  0  0  0  0  0  0  0
   20.6117   -8.7062    0.8365 N   0  0  0  0  0  0  0  0  0  0  0  0
   17.9573   -9.0571   -0.8162 H   0  0  0  0  0  0  0  0  0  0  0  0
   20.9175   -9.7903    0.0449 C   0  0  0  0  0  0  0  0  0  0  0  0
   19.7995  -10.0306   -0.7371 C   0  0  0  0  0  0  0  0  0  0  0  0
   18.8695   -9.1200   -0.4113 N   0  0  0  0  0  0  0  0  0  0  0  0
   19.6544  -11.1047   -1.7475 C   0  0  0  0  0  0  0  0  0  0  0  0
   20.7489  -11.4900   -2.5210 C   0  0  0  0  0  0  0  0  0  0  0  0
   20.6100  -12.4934   -3.4573 C   0  0  0  0  0  0  0  0  0  0  0  0
   19.3829  -13.1117   -3.6366 C   0  0  0  0  0  0  0  0  0  0  0  0
   18.2912  -12.7288   -2.8742 C   0  0  0  0  0  0  0  0  0  0  0  0
   18.4214  -11.7297   -1.9320 C   0  0  0  0  0  0  0  0  0  0  0  0
   19.2506  -14.0907   -4.5582 F   0  0  0  0  0  0  0  0  0  0  0  0
   22.1853  -10.5439    0.0297 C   0  0  0  0  0  0  0  0  0  0  0  0
   22.1904  -11.9456    0.0173 C   0  0  0  0  0  0  0  0  0  0  0  0
   23.3986  -12.6088    0.0080 C   0  0  0  0  0  0  0  0  0  0  0  0
   24.5381  -11.9424    0.0007 N   0  0  0  0  0  0  0  0  0  0  0  0
   24.5790  -10.6231    0.0069 C   0  0  0  0  0  0  0  0  0  0  0  0
   23.4191   -9.8786    0.0215 C   0  0  0  0  0  0  0  0  0  0  0  0
   15.7783   -4.7798   -1.3707 H   0  0  0  0  0  0  0  0  0  0  0  0
   14.2237   -4.0143   -0.9638 H   0  0  0  0  0  0  0  0  0  0  0  0
   15.7290   -3.4215   -0.2215 H   0  0  0  0  0  0  0  0  0  0  0  0
   16.7084   -4.2474    2.7211 H   0  0  0  0  0  0  0  0  0  0  0  0
   19.0061   -4.7524    3.4395 H   0  0  0  0  0  0  0  0  0  0  0  0
   20.2304   -6.6320    2.4302 H   0  0  0  0  0  0  0  0  0  0  0  0
   16.8311   -7.4950   -0.0382 H   0  0  0  0  0  0  0  0  0  0  0  0
   21.7047  -11.0058   -2.3848 H   0  0  0  0  0  0  0  0  0  0  0  0
   21.4581  -12.7953   -4.0540 H   0  0  0  0  0  0  0  0  0  0  0  0
   17.3366  -13.2131   -3.0180 H   0  0  0  0  0  0  0  0  0  0  0  0
   17.5698  -11.4317   -1.3384 H   0  0  0  0  0  0  0  0  0  0  0  0
   21.2620  -12.4974    0.0191 H   0  0  0  0  0  0  0  0  0  0  0  0
   23.4133  -13.6887    0.0020 H   0  0  0  0  0  0  0  0  0  0  0  0
   25.5346  -10.1199    0.0002 H   0  0  0  0  0  0  0  0  0  0  0  0
   23.4602   -8.7994    0.0269 H   0  0  0  0  0  0  0  0  0  0  0  0
  1  2  1  0  0  0  0
  1 29  1  0  0  0  0
  1 30  1  0  0  0  0
  1 31  1  0  0  0  0
  2  3  2  0  0  0  0
  2  4  1  0  0  0  0
  4  9  2  0  0  0  0
  4  5  1  0  0  0  0
  5  6  2  0  0  0  0
  5 32  1  0  0  0  0
  6  7  1  0  0  0  0
  6 33  1  0  0  0  0
  7  8  2  0  0  0  0
  7 34  1  0  0  0  0
  8  9  1  0  0  0  0
  8 10  1  0  0  0  0
  9 35  1  0  0  0  0
 10 11  2  0  0  0  0
 10 15  1  0  0  0  0
 11 13  1  0  0  0  0
 12 15  1  0  0  0  0
 13 14  2  0  0  0  0
 13 23  1  0  0  0  0
 14 15  1  0  0  0  0
 14 16  1  0  0  0  0
 16 21  2  0  0  0  0
 16 17  1  0  0  0  0
 17 18  2  0  0  0  0
 17 36  1  0  0  0  0
 18 19  1  0  0  0  0
 18 37  1  0  0  0  0
 19 20  2  0  0  0  0
 19 22  1  0  0  0  0
 20 21  1  0  0  0  0
 20 38  1  0  0  0  0
 21 39  1  0  0  0  0
 23 28  2  0  0  0  0
 23 24  1  0  0  0  0
 24 25  2  0  0  0  0
 24 40  1  0  0  0  0
 25 26  1  0  0  0  0
 25 41  1  0  0  0  0
 26 27  2  0  0  0  0
 27 28  1  0  0  0  0
 27 42  1  0  0  0  0
 28 43  1  0  0  0  0
M  END
