
  ACD/Labs07171520383D

 43 46  0  0  0  0  0  0  0  0  1 V2000
   15.1960   -5.0095    4.4344 C   0  0  0  0  0  0  0  0  0  0  0  0
   16.0371   -4.2701    3.0073 S   0  0  0  0  0  0  0  0  0  0  0  0
   17.0664   -3.4021    3.4616 O   0  0  0  0  0  0  0  0  0  0  0  0
   16.9071   -5.6185    2.2796 C   0  0  0  0  0  0  0  0  0  0  0  0
   16.2944   -6.3891    1.3074 C   0  0  0  0  0  0  0  0  0  0  0  0
   16.9701   -7.4460    0.7333 C   0  0  0  0  0  0  0  0  0  0  0  0
   18.2745   -7.7375    1.1355 C   0  0  0  0  0  0  0  0  0  0  0  0
   18.8845   -6.9600    2.1212 C   0  0  0  0  0  0  0  0  0  0  0  0
   18.1997   -5.9024    2.6832 C   0  0  0  0  0  0  0  0  0  0  0  0
   19.0046   -8.8686    0.5245 C   0  0  0  0  0  0  0  0  0  0  0  0
   20.2754   -9.2515    0.8391 N   0  0  0  0  0  0  0  0  0  0  0  0
   20.8731   -8.8251    1.5180 H   0  0  0  0  0  0  0  0  0  0  0  0
   20.5810  -10.3351    0.0467 C   0  0  0  0  0  0  0  0  0  0  0  0
   19.4592  -10.5809   -0.7282 C   0  0  0  0  0  0  0  0  0  0  0  0
   18.5308   -9.6680   -0.4043 N   0  0  0  0  0  0  0  0  0  0  0  0
   19.3112  -11.6589   -1.7340 C   0  0  0  0  0  0  0  0  0  0  0  0
   20.4040  -12.0487   -2.5077 C   0  0  0  0  0  0  0  0  0  0  0  0
   20.2623  -13.0558   -3.4398 C   0  0  0  0  0  0  0  0  0  0  0  0
   19.0342  -13.6732   -3.6146 C   0  0  0  0  0  0  0  0  0  0  0  0
   17.9441  -13.2858   -2.8519 C   0  0  0  0  0  0  0  0  0  0  0  0
   18.0771  -12.2830   -1.9140 C   0  0  0  0  0  0  0  0  0  0  0  0
   18.8990  -14.6557   -4.5320 F   0  0  0  0  0  0  0  0  0  0  0  0
   21.8488  -11.0887    0.0306 C   0  0  0  0  0  0  0  0  0  0  0  0
   21.8539  -12.4904    0.0173 C   0  0  0  0  0  0  0  0  0  0  0  0
   23.0621  -13.1536    0.0080 C   0  0  0  0  0  0  0  0  0  0  0  0
   24.2016  -12.4872    0.0007 N   0  0  0  0  0  0  0  0  0  0  0  0
   24.2425  -11.1679    0.0074 C   0  0  0  0  0  0  0  0  0  0  0  0
   23.0826  -10.4234    0.0224 C   0  0  0  0  0  0  0  0  0  0  0  0
   15.9362   -5.4345    5.1123 H   0  0  0  0  0  0  0  0  0  0  0  0
   14.6234   -4.2426    4.9560 H   0  0  0  0  0  0  0  0  0  0  0  0
   14.5230   -5.7957    4.0922 H   0  0  0  0  0  0  0  0  0  0  0  0
   15.2850   -6.1625    0.9971 H   0  0  0  0  0  0  0  0  0  0  0  0
   16.4910   -8.0463   -0.0260 H   0  0  0  0  0  0  0  0  0  0  0  0
   19.8918   -7.1833    2.4403 H   0  0  0  0  0  0  0  0  0  0  0  0
   18.6721   -5.2973    3.4428 H   0  0  0  0  0  0  0  0  0  0  0  0
   21.3606  -11.5652   -2.3750 H   0  0  0  0  0  0  0  0  0  0  0  0
   21.1088  -13.3606   -4.0371 H   0  0  0  0  0  0  0  0  0  0  0  0
   16.9887  -13.7695   -2.9923 H   0  0  0  0  0  0  0  0  0  0  0  0
   17.2268  -11.9815   -1.3202 H   0  0  0  0  0  0  0  0  0  0  0  0
   20.9255  -13.0422    0.0188 H   0  0  0  0  0  0  0  0  0  0  0  0
   23.0768  -14.2335    0.0020 H   0  0  0  0  0  0  0  0  0  0  0  0
   25.1981  -10.6647    0.0006 H   0  0  0  0  0  0  0  0  0  0  0  0
   23.1237   -9.3442    0.0282 H   0  0  0  0  0  0  0  0  0  0  0  0
  1  2  1  0  0  0  0
  1 29  1  0  0  0  0
  1 30  1  0  0  0  0
  1 31  1  0  0  0  0
  2  3  2  0  0  0  0
  2  4  1  0  0  0  0
  4  9  2  0  0  0  0
  4  5  1  0  0  0  0
  5  6  2  0  0  0  0
  5 32  1  0  0  0  0
  6  7  1  0  0  0  0
  6 33  1  0  0  0  0
  7  8  2  0  0  0  0
  7 10  1  0  0  0  0
  8  9  1  0  0  0  0
  8 34  1  0  0  0  0
  9 35  1  0  0  0  0
 10 15  2  0  0  0  0
 10 11  1  0  0  0  0
 11 12  1  0  0  0  0
 11 13  1  0  0  0  0
 13 14  2  0  0  0  0
 13 23  1  0  0  0  0
 14 15  1  0  0  0  0
 14 16  1  0  0  0  0
 16 21  2  0  0  0  0
 16 17  1  0  0  0  0
 17 18  2  0  0  0  0
 17 36  1  0  0  0  0
 18 19  1  0  0  0  0
 18 37  1  0  0  0  0
 19 20  2  0  0  0  0
 19 22  1  0  0  0  0
 20 21  1  0  0  0  0
 20 38  1  0  0  0  0
 21 39  1  0  0  0  0
 23 28  2  0  0  0  0
 23 24  1  0  0  0  0
 24 25  2  0  0  0  0
 24 40  1  0  0  0  0
 25 26  1  0  0  0  0
 25 41  1  0  0  0  0
 26 27  2  0  0  0  0
 27 28  1  0  0  0  0
 27 42  1  0  0  0  0
 28 43  1  0  0  0  0
M  END
