
  ACD/Labs07171520383D

 47 50  0  0  0  0  0  0  0  0  1 V2000
   22.2421  -17.1187   -0.0216 C   0  0  0  0  0  0  0  0  0  0  0  0
   22.3003  -15.6909   -0.0145 O   0  0  0  0  0  0  0  0  0  0  0  0
   21.1156  -15.0251    0.0004 C   0  0  0  0  0  0  0  0  0  0  0  0
   19.9214  -15.7335    0.0080 C   0  0  0  0  0  0  0  0  0  0  0  0
   18.7138  -15.0609    0.0173 C   0  0  0  0  0  0  0  0  0  0  0  0
   18.6880  -13.6808    0.0298 C   0  0  0  0  0  0  0  0  0  0  0  0
   19.8827  -12.9615    0.0223 C   0  0  0  0  0  0  0  0  0  0  0  0
   21.0999  -13.6405    0.0075 C   0  0  0  0  0  0  0  0  0  0  0  0
   19.8582  -11.4799    0.0305 C   0  0  0  0  0  0  0  0  0  0  0  0
   18.9256  -10.6747   -0.6030 C   0  0  0  0  0  0  0  0  0  0  0  0
   19.2844   -9.3748   -0.3276 N   0  0  0  0  0  0  0  0  0  0  0  0
   18.8096   -8.5501   -0.6349 H   0  0  0  0  0  0  0  0  0  0  0  0
   20.4090   -9.4222    0.4430 C   0  0  0  0  0  0  0  0  0  0  0  0
   20.7387  -10.6773    0.6480 N   0  0  0  0  0  0  0  0  0  0  0  0
   21.1405   -8.2480    0.9646 C   0  0  0  0  0  0  0  0  0  0  0  0
   20.6939   -6.9580    0.6736 C   0  0  0  0  0  0  0  0  0  0  0  0
   21.3775   -5.8667    1.1686 C   0  0  0  0  0  0  0  0  0  0  0  0
   22.5103   -6.0487    1.9419 C   0  0  0  0  0  0  0  0  0  0  0  0
   22.9618   -7.3246    2.2289 C   0  0  0  0  0  0  0  0  0  0  0  0
   22.2839   -8.4245    1.7453 C   0  0  0  0  0  0  0  0  0  0  0  0
   23.3820   -4.6493    2.5636 S   0  0  0  0  0  0  0  0  0  0  0  0
   22.4001   -3.6229    2.6046 O   0  0  0  0  0  0  0  0  0  0  0  0
   24.5937   -4.2753    1.2665 C   0  0  0  0  0  0  0  0  0  0  0  0
   17.7744  -11.1219   -1.4095 C   0  0  0  0  0  0  0  0  0  0  0  0
   17.9161  -12.1345   -2.3683 C   0  0  0  0  0  0  0  0  0  0  0  0
   16.8122  -12.5246   -3.0957 C   0  0  0  0  0  0  0  0  0  0  0  0
   15.6382  -11.9516   -2.9064 N   0  0  0  0  0  0  0  0  0  0  0  0
   15.4616  -10.9914   -2.0181 C   0  0  0  0  0  0  0  0  0  0  0  0
   16.5091  -10.5423   -1.2429 C   0  0  0  0  0  0  0  0  0  0  0  0
   21.7054  -17.4560   -0.9084 H   0  0  0  0  0  0  0  0  0  0  0  0
   23.2540  -17.5236   -0.0335 H   0  0  0  0  0  0  0  0  0  0  0  0
   21.7223  -17.4656    0.8715 H   0  0  0  0  0  0  0  0  0  0  0  0
   19.9361  -16.8134    0.0020 H   0  0  0  0  0  0  0  0  0  0  0  0
   17.7879  -15.6168    0.0191 H   0  0  0  0  0  0  0  0  0  0  0  0
   17.7429  -13.1583    0.0413 H   0  0  0  0  0  0  0  0  0  0  0  0
   22.0280  -13.0883    0.0012 H   0  0  0  0  0  0  0  0  0  0  0  0
   19.8124   -6.8146    0.0664 H   0  0  0  0  0  0  0  0  0  0  0  0
   21.0302   -4.8681    0.9482 H   0  0  0  0  0  0  0  0  0  0  0  0
   23.8467   -7.4599    2.8331 H   0  0  0  0  0  0  0  0  0  0  0  0
   22.6374   -9.4200    1.9700 H   0  0  0  0  0  0  0  0  0  0  0  0
   24.0724   -4.0540    0.3352 H   0  0  0  0  0  0  0  0  0  0  0  0
   25.1892   -3.4121    1.5635 H   0  0  0  0  0  0  0  0  0  0  0  0
   25.2476   -5.1352    1.1213 H   0  0  0  0  0  0  0  0  0  0  0  0
   18.8746  -12.6046   -2.5318 H   0  0  0  0  0  0  0  0  0  0  0  0
   16.9102  -13.3065   -3.8342 H   0  0  0  0  0  0  0  0  0  0  0  0
   14.4828  -10.5512   -1.8973 H   0  0  0  0  0  0  0  0  0  0  0  0
   16.3572   -9.7563   -0.5180 H   0  0  0  0  0  0  0  0  0  0  0  0
  1  2  1  0  0  0  0
  1 30  1  0  0  0  0
  1 31  1  0  0  0  0
  1 32  1  0  0  0  0
  2  3  1  0  0  0  0
  3  8  2  0  0  0  0
  3  4  1  0  0  0  0
  4  5  2  0  0  0  0
  4 33  1  0  0  0  0
  5  6  1  0  0  0  0
  5 34  1  0  0  0  0
  6  7  2  0  0  0  0
  6 35  1  0  0  0  0
  7  8  1  0  0  0  0
  7  9  1  0  0  0  0
  8 36  1  0  0  0  0
  9 14  1  0  0  0  0
  9 10  2  0  0  0  0
 10 11  1  0  0  0  0
 10 24  1  0  0  0  0
 11 12  1  0  0  0  0
 11 13  1  0  0  0  0
 13 14  2  0  0  0  0
 13 15  1  0  0  0  0
 15 20  2  0  0  0  0
 15 16  1  0  0  0  0
 16 17  2  0  0  0  0
 16 37  1  0  0  0  0
 17 18  1  0  0  0  0
 17 38  1  0  0  0  0
 18 19  2  0  0  0  0
 18 21  1  0  0  0  0
 19 20  1  0  0  0  0
 19 39  1  0  0  0  0
 20 40  1  0  0  0  0
 21 22  2  0  0  0  0
 21 23  1  0  0  0  0
 23 41  1  0  0  0  0
 23 42  1  0  0  0  0
 23 43  1  0  0  0  0
 24 29  2  0  0  0  0
 24 25  1  0  0  0  0
 25 26  2  0  0  0  0
 25 44  1  0  0  0  0
 26 27  1  0  0  0  0
 26 45  1  0  0  0  0
 27 28  2  0  0  0  0
 28 29  1  0  0  0  0
 28 46  1  0  0  0  0
 29 47  1  0  0  0  0
M  END
