
  ACD/Labs07171520393D

 58 62  0  0  0  0  0  0  0  0  1 V2000
   27.2624   -8.8086    2.5670 C   0  0  0  0  0  0  0  0  0  0  0  0
   28.2749   -8.6222    1.5917 O   0  0  0  0  0  0  0  0  0  0  0  0
   25.8810   -8.8050    1.9115 C   0  0  0  0  0  0  0  0  0  0  0  0
   25.7390   -7.5734    1.1058 N   0  0  0  0  0  0  0  0  0  0  0  0
   26.8566   -7.2392    0.1953 C   0  0  0  0  0  0  0  0  0  0  0  0
   28.1743   -7.3547    0.9631 C   0  0  0  0  0  0  0  0  0  0  0  0
   24.4947   -6.9098    1.0057 C   0  0  0  0  0  0  0  0  0  0  0  0
   24.4448   -5.5077    0.9632 C   0  0  0  0  0  0  0  0  0  0  0  0
   23.2121   -4.8498    0.8615 C   0  0  0  0  0  0  0  0  0  0  0  0
   22.0229   -5.5878    0.8006 C   0  0  0  0  0  0  0  0  0  0  0  0
   22.0606   -6.9917    0.8501 C   0  0  0  0  0  0  0  0  0  0  0  0
   23.2984   -7.6459    0.9647 C   0  0  0  0  0  0  0  0  0  0  0  0
   23.1652   -3.4009    0.8493 F   0  0  0  0  0  0  0  0  0  0  0  0
   20.8264   -7.7881    0.8471 C   0  0  0  0  0  0  0  0  0  0  0  0
   20.8289   -8.8263    1.5088 O   0  0  0  0  0  0  0  0  0  0  0  0
   19.7517   -7.3518    0.1649 N   0  0  0  0  0  0  0  0  0  0  0  0
   18.4956   -8.0044    0.1272 C   0  0  0  0  0  0  0  0  0  0  0  0
   18.3729   -9.3325   -0.1742 C   0  0  0  0  0  0  0  0  0  0  0  0
   17.1193   -9.9679   -0.2284 C   0  0  0  0  0  0  0  0  0  0  0  0
   15.9911   -9.1802    0.0227 C   0  0  0  0  0  0  0  0  0  0  0  0
   16.1205   -7.8239    0.3077 C   0  0  0  0  0  0  0  0  0  0  0  0
   17.3950   -7.2384    0.3599 C   0  0  0  0  0  0  0  0  0  0  0  0
   14.9168   -7.3096    0.4819 N   0  0  0  0  0  0  0  0  0  0  0  0
   14.0053   -8.2581    0.3453 C   0  0  0  0  0  0  0  0  0  0  0  0
   14.6294   -9.4771    0.0458 C   0  0  0  0  0  0  0  0  0  0  0  0
   14.5953   -5.8944    0.7846 C   0  0  0  0  0  0  0  0  0  0  0  0
   14.7834   -5.0006   -0.4470 C   0  0  0  0  0  0  0  0  0  0  0  0
   13.9645   -5.4936   -1.6076 C   0  0  0  0  0  0  0  0  0  0  0  0
   14.5969   -5.9992   -2.7518 C   0  0  0  0  0  0  0  0  0  0  0  0
   13.8181   -6.4921   -3.8085 C   0  0  0  0  0  0  0  0  0  0  0  0
   12.4675   -6.4679   -3.7323 N   0  0  0  0  0  0  0  0  0  0  0  0
   11.8306   -5.9729   -2.6462 C   0  0  0  0  0  0  0  0  0  0  0  0
   12.5636   -5.4717   -1.5608 C   0  0  0  0  0  0  0  0  0  0  0  0
   27.3148   -8.0077    3.3053 H   0  0  0  0  0  0  0  0  0  0  0  0
   27.4145   -9.7640    3.0691 H   0  0  0  0  0  0  0  0  0  0  0  0
   25.1155   -8.8496    2.6862 H   0  0  0  0  0  0  0  0  0  0  0  0
   25.7893   -9.6717    1.2565 H   0  0  0  0  0  0  0  0  0  0  0  0
   26.7598   -6.2322   -0.2087 H   0  0  0  0  0  0  0  0  0  0  0  0
   26.8605   -7.9544   -0.6273 H   0  0  0  0  0  0  0  0  0  0  0  0
   28.2249   -6.5684    1.7168 H   0  0  0  0  0  0  0  0  0  0  0  0
   29.0036   -7.2310    0.2664 H   0  0  0  0  0  0  0  0  0  0  0  0
   25.3496   -4.9252    1.0481 H   0  0  0  0  0  0  0  0  0  0  0  0
   21.0820   -5.0592    0.7688 H   0  0  0  0  0  0  0  0  0  0  0  0
   23.3313   -8.7253    0.9719 H   0  0  0  0  0  0  0  0  0  0  0  0
   19.8206   -6.4585   -0.2993 H   0  0  0  0  0  0  0  0  0  0  0  0
   19.2340   -9.8992   -0.3728 H   0  0  0  0  0  0  0  0  0  0  0  0
   17.0308  -11.0190   -0.4609 H   0  0  0  0  0  0  0  0  0  0  0  0
   17.5011   -6.2161    0.5743 H   0  0  0  0  0  0  0  0  0  0  0  0
   12.9413   -8.0977    0.4378 H   0  0  0  0  0  0  0  0  0  0  0  0
   14.1830  -10.4434   -0.1363 H   0  0  0  0  0  0  0  0  0  0  0  0
   13.5600   -5.8306    1.1187 H   0  0  0  0  0  0  0  0  0  0  0  0
   15.2412   -5.5390    1.5873 H   0  0  0  0  0  0  0  0  0  0  0  0
   14.4883   -3.9800   -0.2040 H   0  0  0  0  0  0  0  0  0  0  0  0
   15.8362   -5.0018   -0.7263 H   0  0  0  0  0  0  0  0  0  0  0  0
   15.6748   -6.0372   -2.8113 H   0  0  0  0  0  0  0  0  0  0  0  0
   14.2998   -6.8946   -4.6870 H   0  0  0  0  0  0  0  0  0  0  0  0
   10.7514   -5.9646   -2.6136 H   0  0  0  0  0  0  0  0  0  0  0  0
   12.0503   -5.0785   -0.6959 H   0  0  0  0  0  0  0  0  0  0  0  0
  1  2  1  0  0  0  0
  1  3  1  0  0  0  0
  1 34  1  0  0  0  0
  1 35  1  0  0  0  0
  2  6  1  0  0  0  0
  3  4  1  0  0  0  0
  3 36  1  0  0  0  0
  3 37  1  0  0  0  0
  4  5  1  0  0  0  0
  4  7  1  0  0  0  0
  5  6  1  0  0  0  0
  5 38  1  0  0  0  0
  5 39  1  0  0  0  0
  6 40  1  0  0  0  0
  6 41  1  0  0  0  0
  7 12  1  0  0  0  0
  7  8  2  0  0  0  0
  8  9  1  0  0  0  0
  8 42  1  0  0  0  0
  9 10  2  0  0  0  0
  9 13  1  0  0  0  0
 10 11  1  0  0  0  0
 10 43  1  0  0  0  0
 11 12  2  0  0  0  0
 11 14  1  0  0  0  0
 12 44  1  0  0  0  0
 14 15  2  0  0  0  0
 14 16  1  0  0  0  0
 16 17  1  0  0  0  0
 16 45  1  0  0  0  0
 17 22  2  0  0  0  0
 17 18  1  0  0  0  0
 18 19  2  0  0  0  0
 18 46  1  0  0  0  0
 19 20  1  0  0  0  0
 19 47  1  0  0  0  0
 20 25  1  0  0  0  0
 20 21  2  0  0  0  0
 21 22  1  0  0  0  0
 21 23  1  0  0  0  0
 22 48  1  0  0  0  0
 23 24  1  0  0  0  0
 23 26  1  0  0  0  0
 24 25  2  0  0  0  0
 24 49  1  0  0  0  0
 25 50  1  0  0  0  0
 26 27  1  0  0  0  0
 26 51  1  0  0  0  0
 26 52  1  0  0  0  0
 27 28  1  0  0  0  0
 27 53  1  0  0  0  0
 27 54  1  0  0  0  0
 28 29  2  0  0  0  0
 28 33  1  0  0  0  0
 29 30  1  0  0  0  0
 29 55  1  0  0  0  0
 30 31  2  0  0  0  0
 30 56  1  0  0  0  0
 31 32  1  0  0  0  0
 32 33  2  0  0  0  0
 32 57  1  0  0  0  0
 33 58  1  0  0  0  0
M  END
