
  ACD/Labs07171520393D

 64 68  0  0  0  0  0  0  0  0  2 V2000
   22.6635  -12.5634    5.5754 C   0  0  0  0  0  0  0  0  0  0  0  0
   22.8033  -13.0913    4.1462 C   0  0  0  0  0  0  0  0  0  0  0  0
   23.7200  -12.7020    3.7031 H   0  0  0  0  0  0  0  0  0  0  0  0
   22.8569  -14.5971    4.1699 C   0  0  0  0  0  0  0  0  0  0  0  0
   21.6905  -15.3284    4.2947 C   0  0  0  0  0  0  0  0  0  0  0  0
   21.7393  -16.7098    4.3121 C   0  0  0  0  0  0  0  0  0  0  0  0
   22.9554  -17.3597    4.2137 C   0  0  0  0  0  0  0  0  0  0  0  0
   24.1223  -16.6283    4.0942 C   0  0  0  0  0  0  0  0  0  0  0  0
   24.0731  -15.2470    4.0725 C   0  0  0  0  0  0  0  0  0  0  0  0
   21.6530  -12.6561    3.3501 N   0  0  0  0  0  0  0  0  0  0  0  0
   21.6594  -11.4094    2.7488 C   0  0  0  0  0  0  0  0  0  0  0  0
   22.7153  -10.6231    2.9044 N   0  0  0  0  0  0  0  0  0  0  0  0
   22.7617   -9.4229    2.3459 C   0  0  0  0  0  0  0  0  0  0  0  0
   21.6907   -8.9865    1.5896 C   0  0  0  0  0  0  0  0  0  0  0  0
   20.5877   -9.8380    1.4416 C   0  0  0  0  0  0  0  0  0  0  0  0
   20.6093  -11.0314    2.0382 N   0  0  0  0  0  0  0  0  0  0  0  0
   19.4201   -9.4197    0.6449 C   0  0  0  0  0  0  0  0  0  0  0  0
   18.5079  -10.2447    0.0096 C   0  0  0  0  0  0  0  0  0  0  0  0
   17.6109   -9.4529   -0.6043 N   0  0  0  0  0  0  0  0  0  0  0  0
   17.9063   -8.2022   -0.3804 C   0  0  0  0  0  0  0  0  0  0  0  0
   19.0165   -8.1293    0.3824 N   0  0  0  0  0  0  0  0  0  0  0  0
   19.4639   -7.2928    0.6988 H   0  0  0  0  0  0  0  0  0  0  0  0
   17.1298   -7.0196   -0.8995 C   0  0  0  0  0  0  0  0  0  0  0  0
   18.0946   -5.8747   -1.2201 C   0  0  0  0  0  0  0  0  0  0  0  0
   17.2953   -4.6567   -1.6888 C   0  0  0  0  0  0  0  0  0  0  0  0
   15.3911   -5.3163   -0.3430 C   0  0  0  0  0  0  0  0  0  0  0  0
   16.1335   -6.5540    0.1659 C   0  0  0  0  0  0  0  0  0  0  0  0
   18.5211  -11.7262    0.0020 C   0  0  0  0  0  0  0  0  0  0  0  0
   19.7335  -12.4155   -0.0138 C   0  0  0  0  0  0  0  0  0  0  0  0
   19.7394  -13.7952   -0.0212 C   0  0  0  0  0  0  0  0  0  0  0  0
   18.5457  -14.4949   -0.0136 C   0  0  0  0  0  0  0  0  0  0  0  0
   17.3402  -13.8169    0.0020 C   0  0  0  0  0  0  0  0  0  0  0  0
   17.3215  -12.4369    0.0096 C   0  0  0  0  0  0  0  0  0  0  0  0
   16.0446  -14.5866    0.0103 C   0  0  0  0  0  0  0  0  0  0  0  0
   15.6311  -14.8176   -1.3061 F   0  0  0  0  0  0  0  0  0  0  0  0
   16.2333  -15.8103    0.6614 F   0  0  0  0  0  0  0  0  0  0  0  0
   15.0666  -13.8462    0.6831 F   0  0  0  0  0  0  0  0  0  0  0  0
   21.7468  -12.9526    6.0185 H   0  0  0  0  0  0  0  0  0  0  0  0
   23.5193  -12.8872    6.1677 H   0  0  0  0  0  0  0  0  0  0  0  0
   22.6247  -11.4742    5.5583 H   0  0  0  0  0  0  0  0  0  0  0  0
   20.7408  -14.8205    4.3753 H   0  0  0  0  0  0  0  0  0  0  0  0
   20.8276  -17.2812    4.4051 H   0  0  0  0  0  0  0  0  0  0  0  0
   22.9937  -18.4389    4.2300 H   0  0  0  0  0  0  0  0  0  0  0  0
   25.0724  -17.1361    4.0173 H   0  0  0  0  0  0  0  0  0  0  0  0
   24.9848  -14.6756    3.9791 H   0  0  0  0  0  0  0  0  0  0  0  0
   20.8869  -13.2416    3.2445 H   0  0  0  0  0  0  0  0  0  0  0  0
   23.6279   -8.7920    2.4800 H   0  0  0  0  0  0  0  0  0  0  0  0
   21.7036   -8.0124    1.1233 H   0  0  0  0  0  0  0  0  0  0  0  0
   16.5902   -7.3061   -1.8023 H   0  0  0  0  0  0  0  0  0  0  0  0
   18.6617   -5.6156   -0.3260 H   0  0  0  0  0  0  0  0  0  0  0  0
   18.7796   -6.1860   -2.0087 H   0  0  0  0  0  0  0  0  0  0  0  0
   16.7393   -4.9124   -2.5908 H   0  0  0  0  0  0  0  0  0  0  0  0
   17.9784   -3.8350   -1.9042 H   0  0  0  0  0  0  0  0  0  0  0  0
   14.8440   -5.5689   -1.2512 H   0  0  0  0  0  0  0  0  0  0  0  0
   14.6912   -4.9737    0.4191 H   0  0  0  0  0  0  0  0  0  0  0  0
   15.4174   -7.3506    0.3675 H   0  0  0  0  0  0  0  0  0  0  0  0
   16.6698   -6.3056    1.0818 H   0  0  0  0  0  0  0  0  0  0  0  0
   20.6658  -11.8704   -0.0198 H   0  0  0  0  0  0  0  0  0  0  0  0
   20.6775  -14.3300   -0.0334 H   0  0  0  0  0  0  0  0  0  0  0  0
   18.5553  -15.5748   -0.0202 H   0  0  0  0  0  0  0  0  0  0  0  0
   16.3795  -11.9086    0.0169 H   0  0  0  0  0  0  0  0  0  0  0  0
   16.3577   -4.2390   -0.6291 N   0  3  0  0  0  0  0  0  0  0  0  0
   15.8496   -3.4019   -0.9378 H   0  0  0  0  0  0  0  0  0  0  0  0
   16.8862   -4.0233    0.2243 H   0  0  0  0  0  0  0  0  0  0  0  0
  1  2  1  0  0  0  0
  1 38  1  0  0  0  0
  1 39  1  0  0  0  0
  1 40  1  0  0  0  0
  2  3  1  0  0  0  0
  2  4  1  0  0  0  0
  2 10  1  0  0  0  0
  4  9  2  0  0  0  0
  4  5  1  0  0  0  0
  5  6  2  0  0  0  0
  5 41  1  0  0  0  0
  6  7  1  0  0  0  0
  6 42  1  0  0  0  0
  7  8  2  0  0  0  0
  7 43  1  0  0  0  0
  8  9  1  0  0  0  0
  8 44  1  0  0  0  0
  9 45  1  0  0  0  0
 10 11  1  0  0  0  0
 10 46  1  0  0  0  0
 11 16  2  0  0  0  0
 11 12  1  0  0  0  0
 12 13  2  0  0  0  0
 13 14  1  0  0  0  0
 13 47  1  0  0  0  0
 14 15  2  0  0  0  0
 14 48  1  0  0  0  0
 15 16  1  0  0  0  0
 15 17  1  0  0  0  0
 17 21  1  0  0  0  0
 17 18  2  0  0  0  0
 18 19  1  0  0  0  0
 18 28  1  0  0  0  0
 19 20  2  0  0  0  0
 20 21  1  0  0  0  0
 20 23  1  0  0  0  0
 21 22  1  0  0  0  0
 23 27  1  0  0  0  0
 23 24  1  0  0  0  0
 23 49  1  0  0  0  0
 24 25  1  0  0  0  0
 24 50  1  0  0  0  0
 24 51  1  0  0  0  0
 25 52  1  0  0  0  0
 25 53  1  0  0  0  0
 25 62  1  0  0  0  0
 26 27  1  0  0  0  0
 26 54  1  0  0  0  0
 26 55  1  0  0  0  0
 26 62  1  0  0  0  0
 27 56  1  0  0  0  0
 27 57  1  0  0  0  0
 28 33  2  0  0  0  0
 28 29  1  0  0  0  0
 29 30  2  0  0  0  0
 29 58  1  0  0  0  0
 30 31  1  0  0  0  0
 30 59  1  0  0  0  0
 31 32  2  0  0  0  0
 31 60  1  0  0  0  0
 32 33  1  0  0  0  0
 32 34  1  0  0  0  0
 33 61  1  0  0  0  0
 34 35  1  0  0  0  0
 34 36  1  0  0  0  0
 34 37  1  0  0  0  0
 62 63  1  0  0  0  0
 62 64  1  0  0  0  0
M  CHG  1  62   1
M  END
