
  ACD/Labs07171520363D

 32 33  0  0  0  0  0  0  0  0  1 V2000
   19.9811   -8.6076  -51.7466 N   0  0  0  0  0  0  0  0  0  0  0  0
   20.0918   -9.7655  -50.9701 C   0  0  0  0  0  0  0  0  0  0  0  0
   19.3615   -9.8413  -49.8199 N   0  0  0  0  0  0  0  0  0  0  0  0
   18.5493   -8.8421  -49.4369 C   0  0  0  0  0  0  0  0  0  0  0  0
   18.4101   -7.6552  -50.2346 C   0  0  0  0  0  0  0  0  0  0  0  0
   19.1394   -7.5849  -51.3725 C   0  0  0  0  0  0  0  0  0  0  0  0
   20.8164  -10.6979  -51.3143 O   0  0  0  0  0  0  0  0  0  0  0  0
   17.8571   -8.9693  -48.2963 N   0  0  0  0  0  0  0  0  0  0  0  0
   20.7793   -8.5195  -52.9981 C   0  0  0  0  0  0  0  0  0  0  0  0
   19.9781   -8.9785  -54.2099 C   0  0  0  0  0  0  0  0  0  0  0  0
   20.8194   -8.4151  -55.3472 C   0  0  0  0  0  0  0  0  0  0  0  0
   21.4578   -7.1722  -54.7121 C   0  0  0  0  0  0  0  0  0  0  0  0
   21.1344   -7.1932  -53.3309 O   0  0  0  0  0  0  0  0  0  0  0  0
   21.8174   -9.3397  -55.7321 O   0  0  0  0  0  0  0  0  0  0  0  0
   20.9358   -5.8793  -55.3359 C   0  0  0  0  0  0  0  0  0  0  0  0
   21.3352   -5.8171  -56.6895 O   0  0  0  0  0  0  0  0  0  0  0  0
   20.9285   -4.5688  -57.6265 P   0  0  0  0  0  0  0  0  0  0  0  0
   21.5549   -4.9094  -58.9235 O   0  0  0  0  0  0  0  0  0  0  0  0
   19.4488   -4.6043  -57.6214 O   0  0  0  0  0  0  0  0  0  0  0  0
   21.5280   -3.4076  -56.9314 O   0  0  0  0  0  0  0  0  0  0  0  0
   17.7666   -6.8759  -49.9501 H   0  0  0  0  0  0  0  0  0  0  0  0
   19.0500   -6.7316  -51.9778 H   0  0  0  0  0  0  0  0  0  0  0  0
   17.2379   -8.2310  -47.9934 H   0  0  0  0  0  0  0  0  0  0  0  0
   17.9550   -9.8052  -47.7377 H   0  0  0  0  0  0  0  0  0  0  0  0
   21.7013   -9.0956  -52.9236 H   0  0  0  0  0  0  0  0  0  0  0  0
   19.8588  -10.0605  -54.2612 H   0  0  0  0  0  0  0  0  0  0  0  0
   19.0077   -8.4820  -54.2045 H   0  0  0  0  0  0  0  0  0  0  0  0
   20.1950   -8.1735  -56.2077 H   0  0  0  0  0  0  0  0  0  0  0  0
   22.5405   -7.2159  -54.8321 H   0  0  0  0  0  0  0  0  0  0  0  0
   22.3739   -9.5456  -54.9778 H   0  0  0  0  0  0  0  0  0  0  0  0
   19.8483   -5.8535  -55.2617 H   0  0  0  0  0  0  0  0  0  0  0  0
   21.3548   -5.0307  -54.7955 H   0  0  0  0  0  0  0  0  0  0  0  0
  1  2  1  0  0  0  0
  1  6  1  0  0  0  0
  1  9  1  0  0  0  0
  2  3  1  0  0  0  0
  2  7  2  0  0  0  0
  3  4  2  0  0  0  0
  4  5  1  0  0  0  0
  4  8  1  0  0  0  0
  5 21  1  0  0  0  0
  5  6  2  0  0  0  0
  6 22  1  0  0  0  0
  8 24  1  0  0  0  0
  8 23  1  0  0  0  0
  9 25  1  0  0  0  0
  9 10  1  0  0  0  0
  9 13  1  0  0  0  0
 10 27  1  0  0  0  0
 10 26  1  0  0  0  0
 10 11  1  0  0  0  0
 11 28  1  0  0  0  0
 11 12  1  0  0  0  0
 11 14  1  0  0  0  0
 12 29  1  0  0  0  0
 12 13  1  0  0  0  0
 12 15  1  0  0  0  0
 14 30  1  0  0  0  0
 15 32  1  0  0  0  0
 15 31  1  0  0  0  0
 15 16  1  0  0  0  0
 16 17  1  0  0  0  0
 17 18  1  0  0  0  0
 17 19  1  0  0  0  0
 17 20  2  0  0  0  0
M  END
