
  ACD/Labs07171520363D

 31 32  0  0  0  0  0  0  0  0  1 V2000
   19.7868   -8.5876  -53.6531 N   0  0  0  0  0  0  0  0  0  0  0  0
   19.8487   -9.7074  -52.8226 C   0  0  0  0  0  0  0  0  0  0  0  0
   18.8840   -9.7802  -51.8221 N   0  0  0  0  0  0  0  0  0  0  0  0
   17.8757   -8.8493  -51.5896 C   0  0  0  0  0  0  0  0  0  0  0  0
   17.8763   -7.7290  -52.5081 C   0  0  0  0  0  0  0  0  0  0  0  0
   18.8082   -7.6339  -53.4869 C   0  0  0  0  0  0  0  0  0  0  0  0
   20.6836  -10.6001  -52.9612 O   0  0  0  0  0  0  0  0  0  0  0  0
   17.0718   -9.0144  -50.6748 O   0  0  0  0  0  0  0  0  0  0  0  0
   20.7901   -8.4681  -54.7437 C   0  0  0  0  0  0  0  0  0  0  0  0
   20.2577   -9.0225  -56.0593 C   0  0  0  0  0  0  0  0  0  0  0  0
   21.2399   -8.4174  -57.0528 C   0  0  0  0  0  0  0  0  0  0  0  0
   21.6495   -7.1070  -56.3672 C   0  0  0  0  0  0  0  0  0  0  0  0
   22.3647   -9.2585  -57.2139 O   0  0  0  0  0  0  0  0  0  0  0  0
   21.0997   -7.1257  -55.0593 O   0  0  0  0  0  0  0  0  0  0  0  0
   21.1324   -5.8816  -57.1185 C   0  0  0  0  0  0  0  0  0  0  0  0
   21.7469   -5.8186  -58.3893 O   0  0  0  0  0  0  0  0  0  0  0  0
   21.3863   -4.6473  -59.4380 P   0  0  0  0  0  0  0  0  0  0  0  0
   22.2654   -4.9516  -60.5891 O   0  0  0  0  0  0  0  0  0  0  0  0
   19.9411   -4.8449  -59.6896 O   0  0  0  0  0  0  0  0  0  0  0  0
   21.7297   -3.4092  -58.7025 O   0  0  0  0  0  0  0  0  0  0  0  0
   18.9166  -10.5841  -51.2112 H   0  0  0  0  0  0  0  0  0  0  0  0
   17.1442   -6.9821  -52.4152 H   0  0  0  0  0  0  0  0  0  0  0  0
   18.7711   -6.8092  -54.1354 H   0  0  0  0  0  0  0  0  0  0  0  0
   21.7211   -8.9705  -54.4820 H   0  0  0  0  0  0  0  0  0  0  0  0
   20.2350  -10.1117  -56.0893 H   0  0  0  0  0  0  0  0  0  0  0  0
   19.2660   -8.6105  -56.2457 H   0  0  0  0  0  0  0  0  0  0  0  0
   20.7638   -8.2575  -58.0203 H   0  0  0  0  0  0  0  0  0  0  0  0
   22.7367   -7.0534  -56.3038 H   0  0  0  0  0  0  0  0  0  0  0  0
   22.8005   -9.3774  -56.3672 H   0  0  0  0  0  0  0  0  0  0  0  0
   20.0497   -5.9513  -57.2258 H   0  0  0  0  0  0  0  0  0  0  0  0
   21.3815   -4.9851  -56.5506 H   0  0  0  0  0  0  0  0  0  0  0  0
  1  2  1  0  0  0  0
  1  6  1  0  0  0  0
  1  9  1  0  0  0  0
  2  3  1  0  0  0  0
  2  7  2  0  0  0  0
  3 21  1  0  0  0  0
  3  4  1  0  0  0  0
  4  5  1  0  0  0  0
  4  8  2  0  0  0  0
  5 22  1  0  0  0  0
  5  6  2  0  0  0  0
  6 23  1  0  0  0  0
  9 24  1  0  0  0  0
  9 10  1  0  0  0  0
  9 14  1  0  0  0  0
 10 26  1  0  0  0  0
 10 25  1  0  0  0  0
 10 11  1  0  0  0  0
 11 27  1  0  0  0  0
 11 12  1  0  0  0  0
 11 13  1  0  0  0  0
 12 28  1  0  0  0  0
 12 14  1  0  0  0  0
 12 15  1  0  0  0  0
 13 29  1  0  0  0  0
 15 31  1  0  0  0  0
 15 30  1  0  0  0  0
 15 16  1  0  0  0  0
 16 17  1  0  0  0  0
 17 18  1  0  0  0  0
 17 19  1  0  0  0  0
 17 20  2  0  0  0  0
M  END
