ZINC03815448
  -OEChem-08230709403D

 31 33  0     0  0  0  0  0  0999 V2000
    6.9535    3.3617   -0.0875 C   0  0  0  0  0  0  0  0  0  0  0  0
    5.5919    3.3640   -0.3046 C   0  0  0  0  0  0  0  0  0  0  0  0
    4.7713    2.4907    0.4108 C   0  0  0  0  0  0  0  0  0  0  0  0
    5.3334    1.6208    1.3486 C   0  0  0  0  0  0  0  0  0  0  0  0
    6.6972    1.6219    1.5564 C   0  0  0  0  0  0  0  0  0  0  0  0
    7.5093    2.4925    0.8418 C   0  0  0  0  0  0  0  0  0  0  0  0
    8.8515    2.4941    1.0526 O   0  0  0  0  0  0  0  0  0  0  0  0
    4.3179    0.5364    2.2467 Cl  0  0  0  0  0  0  0  0  0  0  0  0
    3.3109    2.4904    0.1814 C   0  0  0  0  0  0  0  0  0  0  0  0
    2.5598    1.3912   -0.0762 C   0  0  0  0  0  0  0  0  0  0  0  0
    1.1788    1.8457   -0.2359 C   0  0  0  0  0  0  0  0  0  0  0  0
   -0.0279    1.1936   -0.5080 C   0  0  0  0  0  0  0  0  0  0  0  0
   -1.1838    1.9153   -0.6039 C   0  0  0  0  0  0  0  0  0  0  0  0
   -1.1710    3.2971   -0.4216 C   0  0  0  0  0  0  0  0  0  0  0  0
    0.0118    3.9593   -0.1515 C   0  0  0  0  0  0  0  0  0  0  0  0
    1.1992    3.2416   -0.0557 C   0  0  0  0  0  0  0  0  0  0  0  0
    2.5044    3.6064    0.1960 N   0  0  0  0  0  0  0  0  0  0  0  0
    2.9643    4.9753    0.4424 C   0  0  0  0  0  0  0  0  0  0  0  0
    3.2624    5.8017   -1.1321 Cl  0  0  0  0  0  0  0  0  0  0  0  0
   -2.3309    4.0002   -0.5155 O   0  0  0  0  0  0  0  0  0  0  0  0
   -2.6798    1.1052   -0.9495 Cl  0  0  0  0  0  0  0  0  0  0  0  0
    7.5887    4.0374   -0.6409 H   0  0  0  0  0  0  0  0  0  0  0  0
    5.1609    4.0406   -1.0276 H   0  0  0  0  0  0  0  0  0  0  0  0
    7.1333    0.9479    2.2788 H   0  0  0  0  0  0  0  0  0  0  0  0
    9.1403    3.1049    1.7444 H   0  0  0  0  0  0  0  0  0  0  0  0
    2.9140    0.3735   -0.1495 H   0  0  0  0  0  0  0  0  0  0  0  0
   -0.0453    0.1227   -0.6465 H   0  0  0  0  0  0  0  0  0  0  0  0
    0.0140    5.0307   -0.0157 H   0  0  0  0  0  0  0  0  0  0  0  0
    2.2022    5.5198    0.9999 H   0  0  0  0  0  0  0  0  0  0  0  0
    3.8883    4.9498    1.0200 H   0  0  0  0  0  0  0  0  0  0  0  0
   -2.5300    4.3131   -1.4085 H   0  0  0  0  0  0  0  0  0  0  0  0
  1  6  2  0  0  0  0
  1  2  1  0  0  0  0
  1 22  1  0  0  0  0
  2  3  2  0  0  0  0
  2 23  1  0  0  0  0
  3  4  1  0  0  0  0
  3  9  1  0  0  0  0
  4  5  2  0  0  0  0
  4  8  1  0  0  0  0
  5  6  1  0  0  0  0
  5 24  1  0  0  0  0
  6  7  1  0  0  0  0
  7 25  1  0  0  0  0
  9 17  1  0  0  0  0
  9 10  2  0  0  0  0
 10 11  1  0  0  0  0
 10 26  1  0  0  0  0
 11 16  2  0  0  0  0
 11 12  1  0  0  0  0
 12 13  2  0  0  0  0
 12 27  1  0  0  0  0
 13 14  1  0  0  0  0
 13 21  1  0  0  0  0
 14 15  2  0  0  0  0
 14 20  1  0  0  0  0
 15 16  1  0  0  0  0
 15 28  1  0  0  0  0
 16 17  1  0  0  0  0
 17 18  1  0  0  0  0
 18 19  1  0  0  0  0
 18 29  1  0  0  0  0
 18 30  1  0  0  0  0
 20 31  1  0  0  0  0
M  END
$$$$
