ZINC03872293
  -OEChem-08230709403D

 38 39  0     0  0  0  0  0  0999 V2000
    0.1458    3.4626    2.2527 C   0  0  0  0  0  0  0  0  0  0  0  0
    0.6779    4.2281    1.0687 C   0  0  0  0  0  0  0  0  0  0  0  0
    1.1656    3.5693    0.0096 C   0  0  0  0  0  0  0  0  0  0  0  0
    1.1821    2.0867    0.0020 C   0  0  0  0  0  0  0  0  0  0  0  0
   -0.0166    1.3747    0.0096 C   0  0  0  0  0  0  0  0  0  0  0  0
    0.0021   -0.0041    0.0020 C   0  0  0  0  0  0  0  0  0  0  0  0
    1.2129   -0.6833   -0.0137 C   0  0  0  0  0  0  0  0  0  0  0  0
    2.4084    0.0228   -0.0213 C   0  0  0  0  0  0  0  0  0  0  0  0
    2.3964    1.4017   -0.0128 C   0  0  0  0  0  0  0  0  0  0  0  0
    1.2280   -2.0419   -0.0211 O   0  0  0  0  0  0  0  0  0  0  0  0
    1.6888    4.3222   -1.1547 C   0  0  0  0  0  0  0  0  0  0  0  0
    2.1766    3.6634   -2.2138 C   0  0  0  0  0  0  0  0  0  0  0  0
    2.7086    4.4289   -3.3978 C   0  0  0  0  0  0  0  0  0  0  0  0
    1.6723    5.8048   -1.1471 C   0  0  0  0  0  0  0  0  0  0  0  0
    2.4443    6.5073   -0.2226 C   0  0  0  0  0  0  0  0  0  0  0  0
    2.4301    7.8861   -0.2210 C   0  0  0  0  0  0  0  0  0  0  0  0
    1.6404    8.5748   -1.1319 C   0  0  0  0  0  0  0  0  0  0  0  0
    0.8669    7.8781   -2.0506 C   0  0  0  0  0  0  0  0  0  0  0  0
    0.8804    6.4993   -2.0606 C   0  0  0  0  0  0  0  0  0  0  0  0
    1.6249    9.9334   -1.1246 O   0  0  0  0  0  0  0  0  0  0  0  0
    0.9389    2.8425    2.6707 H   0  0  0  0  0  0  0  0  0  0  0  0
   -0.2051    4.1631    3.0104 H   0  0  0  0  0  0  0  0  0  0  0  0
   -0.6811    2.8283    1.9334 H   0  0  0  0  0  0  0  0  0  0  0  0
    0.6659    5.3081    1.0743 H   0  0  0  0  0  0  0  0  0  0  0  0
   -0.9588    1.9025    0.0169 H   0  0  0  0  0  0  0  0  0  0  0  0
   -0.9261   -0.5562    0.0079 H   0  0  0  0  0  0  0  0  0  0  0  0
    3.3486   -0.5084   -0.0335 H   0  0  0  0  0  0  0  0  0  0  0  0
    3.3266    1.9504   -0.0188 H   0  0  0  0  0  0  0  0  0  0  0  0
    1.2236   -2.4305   -0.9066 H   0  0  0  0  0  0  0  0  0  0  0  0
    2.1886    2.5834   -2.2194 H   0  0  0  0  0  0  0  0  0  0  0  0
    3.0596    3.7284   -4.1555 H   0  0  0  0  0  0  0  0  0  0  0  0
    1.9155    5.0490   -3.8158 H   0  0  0  0  0  0  0  0  0  0  0  0
    3.5356    5.0632   -3.0786 H   0  0  0  0  0  0  0  0  0  0  0  0
    3.0553    5.9721    0.4891 H   0  0  0  0  0  0  0  0  0  0  0  0
    3.0307    8.4309    0.4924 H   0  0  0  0  0  0  0  0  0  0  0  0
    0.2536    8.4167   -2.7579 H   0  0  0  0  0  0  0  0  0  0  0  0
    0.2784    5.9580   -2.7754 H   0  0  0  0  0  0  0  0  0  0  0  0
    0.9488   10.3159   -0.5488 H   0  0  0  0  0  0  0  0  0  0  0  0
  1  2  1  0  0  0  0
  1 21  1  0  0  0  0
  1 22  1  0  0  0  0
  1 23  1  0  0  0  0
  2  3  2  0  0  0  0
  2 24  1  0  0  0  0
  3  4  1  0  0  0  0
  3 11  1  0  0  0  0
  4  9  2  0  0  0  0
  4  5  1  0  0  0  0
  5  6  2  0  0  0  0
  5 25  1  0  0  0  0
  6  7  1  0  0  0  0
  6 26  1  0  0  0  0
  7  8  2  0  0  0  0
  7 10  1  0  0  0  0
  8  9  1  0  0  0  0
  8 27  1  0  0  0  0
  9 28  1  0  0  0  0
 10 29  1  0  0  0  0
 11 12  2  0  0  0  0
 11 14  1  0  0  0  0
 12 13  1  0  0  0  0
 12 30  1  0  0  0  0
 13 31  1  0  0  0  0
 13 32  1  0  0  0  0
 13 33  1  0  0  0  0
 14 19  2  0  0  0  0
 14 15  1  0  0  0  0
 15 16  2  0  0  0  0
 15 34  1  0  0  0  0
 16 17  1  0  0  0  0
 16 35  1  0  0  0  0
 17 18  2  0  0  0  0
 17 20  1  0  0  0  0
 18 19  1  0  0  0  0
 18 36  1  0  0  0  0
 19 37  1  0  0  0  0
 20 38  1  0  0  0  0
M  END
$$$$
