ZINC01686128
  -OEChem-08230709403D

 46 49  0     1  0  0  0  0  0999 V2000
    2.3031    0.8216   -1.0135 C   0  0  0  0  0  0  0  0  0  0  0  0
    1.4463    1.5889   -0.0032 C   0  0  1  0  0  0  0  0  0  0  0  0
    1.4854    3.0990   -0.2397 C   0  0  0  0  0  0  0  0  0  0  0  0
    0.7661    3.4683   -1.5316 C   0  0  0  0  0  0  0  0  0  0  0  0
   -0.6958    3.0483   -1.4627 C   0  0  2  0  0  0  0  0  0  0  0  0
   -1.1366    3.2281   -2.4551 H   0  0  0  0  0  0  0  0  0  0  0  0
   -1.4729    3.8665   -0.4743 C   0  0  0  0  0  0  0  0  0  0  0  0
   -1.0890    5.1776   -0.2340 C   0  0  0  0  0  0  0  0  0  0  0  0
   -1.7789    5.9599    0.6688 C   0  0  0  0  0  0  0  0  0  0  0  0
   -2.8737    5.4327    1.3378 C   0  0  0  0  0  0  0  0  0  0  0  0
   -3.2608    4.1272    1.0933 C   0  0  0  0  0  0  0  0  0  0  0  0
   -2.5600    3.3371    0.1896 C   0  0  0  0  0  0  0  0  0  0  0  0
   -3.0325    1.9256   -0.0056 C   0  0  0  0  0  0  0  0  0  0  0  0
   -2.2832    1.1632   -1.0805 C   0  0  0  0  0  0  0  0  0  0  0  0
   -0.8135    1.5622   -1.1753 C   0  0  2  0  0  0  0  0  0  0  0  0
   -0.3983    1.0381   -2.0654 H   0  0  0  0  0  0  0  0  0  0  0  0
   -0.0128    1.0922    0.0080 C   0  0  2  0  0  0  0  0  0  0  0  0
    0.0021   -0.0041    0.0020 H   0  0  0  0  0  0  0  0  0  0  0  0
   -0.5429    1.5628    1.3705 C   0  0  0  0  0  0  0  0  0  0  0  0
    0.6537    1.3434    2.3282 C   0  0  0  0  0  0  0  0  0  0  0  0
    1.9194    1.3370    1.4526 C   0  0  1  0  0  0  0  0  0  0  0  0
    2.5945    0.0312    1.5473 C   0  0  0  0  0  0  0  0  0  0  0  0
    3.1325   -1.0095    1.6227 C   0  0  0  0  0  0  0  0  0  0  0  0
    2.8105    2.3733    1.8710 O   0  0  0  0  0  0  0  0  0  0  0  0
   -3.5631    6.1948    2.2272 O   0  0  0  0  0  0  0  0  0  0  0  0
    1.8904    0.9528   -2.0138 H   0  0  0  0  0  0  0  0  0  0  0  0
    3.3237    1.2036   -0.9886 H   0  0  0  0  0  0  0  0  0  0  0  0
    2.3054   -0.2379   -0.7575 H   0  0  0  0  0  0  0  0  0  0  0  0
    1.0093    3.6114    0.5972 H   0  0  0  0  0  0  0  0  0  0  0  0
    2.5256    3.4264   -0.3081 H   0  0  0  0  0  0  0  0  0  0  0  0
    0.8360    4.5453   -1.6934 H   0  0  0  0  0  0  0  0  0  0  0  0
    1.2462    2.9683   -2.3769 H   0  0  0  0  0  0  0  0  0  0  0  0
   -0.2455    5.6028   -0.7566 H   0  0  0  0  0  0  0  0  0  0  0  0
   -1.4669    6.9768    0.8538 H   0  0  0  0  0  0  0  0  0  0  0  0
   -4.1172    3.7160    1.6073 H   0  0  0  0  0  0  0  0  0  0  0  0
   -2.9694    1.3879    0.9431 H   0  0  0  0  0  0  0  0  0  0  0  0
   -4.0981    1.9587   -0.2816 H   0  0  0  0  0  0  0  0  0  0  0  0
   -2.3520    0.0854   -0.8722 H   0  0  0  0  0  0  0  0  0  0  0  0
   -2.7688    1.3336   -2.0516 H   0  0  0  0  0  0  0  0  0  0  0  0
   -0.8114    2.6170    1.3506 H   0  0  0  0  0  0  0  0  0  0  0  0
   -1.3884    0.9512    1.6897 H   0  0  0  0  0  0  0  0  0  0  0  0
    0.5491    0.3880    2.8419 H   0  0  0  0  0  0  0  0  0  0  0  0
    0.7038    2.1549    3.0537 H   0  0  0  0  0  0  0  0  0  0  0  0
    3.6137   -1.9403    1.6902 H   0  0  0  0  0  0  0  0  0  0  0  0
    3.1391    2.2685    2.7744 H   0  0  0  0  0  0  0  0  0  0  0  0
   -3.2328    6.1366    3.1342 H   0  0  0  0  0  0  0  0  0  0  0  0
  1  2  1  0  0  0  0
  1 26  1  0  0  0  0
  1 27  1  0  0  0  0
  1 28  1  0  0  0  0
  2 17  1  0  0  0  0
  2 21  1  0  0  0  0
  2  3  1  0  0  0  0
  3  4  1  0  0  0  0
  3 29  1  0  0  0  0
  3 30  1  0  0  0  0
  4  5  1  0  0  0  0
  4 31  1  0  0  0  0
  4 32  1  0  0  0  0
  5  6  1  0  0  0  0
  5 15  1  0  0  0  0
  5  7  1  0  0  0  0
  7 12  2  0  0  0  0
  7  8  1  0  0  0  0
  8  9  2  0  0  0  0
  8 33  1  0  0  0  0
  9 10  1  0  0  0  0
  9 34  1  0  0  0  0
 10 11  2  0  0  0  0
 10 25  1  0  0  0  0
 11 12  1  0  0  0  0
 11 35  1  0  0  0  0
 12 13  1  0  0  0  0
 13 14  1  0  0  0  0
 13 36  1  0  0  0  0
 13 37  1  0  0  0  0
 14 15  1  0  0  0  0
 14 38  1  0  0  0  0
 14 39  1  0  0  0  0
 15 16  1  0  0  0  0
 15 17  1  0  0  0  0
 17 18  1  0  0  0  0
 17 19  1  0  0  0  0
 19 20  1  0  0  0  0
 19 40  1  0  0  0  0
 19 41  1  0  0  0  0
 20 21  1  0  0  0  0
 20 42  1  0  0  0  0
 20 43  1  0  0  0  0
 21 22  1  0  0  0  0
 21 24  1  0  0  0  0
 22 23  3  0  0  0  0
 23 44  1  0  0  0  0
 24 45  1  0  0  0  0
 25 46  1  0  0  0  0
M  END
$$$$
