ZINC03815417
  -OEChem-08230709403D

 50 53  0     1  0  0  0  0  0999 V2000
   -0.0981    3.4841   -0.7859 C   0  0  0  0  0  0  0  0  0  0  0  0
    1.1667    3.0809   -0.0252 C   0  0  2  0  0  0  0  0  0  0  0  0
    1.3088    3.9389    1.2143 C   0  0  0  0  0  0  0  0  0  0  0  0
    1.2612    5.4130    0.7689 C   0  0  1  0  0  0  0  0  0  0  0  0
    1.3976    6.0552    1.6390 H   0  0  0  0  0  0  0  0  0  0  0  0
    2.3666    5.6925   -0.2389 C   0  0  2  0  0  0  0  0  0  0  0  0
    3.3170    5.5091    0.2624 H   0  0  0  0  0  0  0  0  0  0  0  0
    2.3548    7.1214   -0.6995 C   0  0  0  0  0  0  0  0  0  0  0  0
    1.9755    8.1016    0.2077 C   0  0  0  0  0  0  0  0  0  0  0  0
    1.9562    9.4299   -0.1605 C   0  0  0  0  0  0  0  0  0  0  0  0
    2.3209    9.7903   -1.4498 C   0  0  0  0  0  0  0  0  0  0  0  0
    2.6958    8.8129   -2.3551 C   0  0  0  0  0  0  0  0  0  0  0  0
    2.7089    7.4745   -1.9851 C   0  0  0  0  0  0  0  0  0  0  0  0
    3.1018    6.4649   -3.0313 C   0  0  0  0  0  0  0  0  0  0  0  0
    3.4164    5.1078   -2.4032 C   0  0  0  0  0  0  0  0  0  0  0  0
    2.2795    4.7495   -1.4459 C   0  0  1  0  0  0  0  0  0  0  0  0
    1.3139    4.8683   -1.9373 H   0  0  0  0  0  0  0  0  0  0  0  0
    2.4139    3.3365   -0.9168 C   0  0  2  0  0  0  0  0  0  0  0  0
    3.3298    3.2326   -0.3349 H   0  0  0  0  0  0  0  0  0  0  0  0
    2.2837    2.2158   -1.9544 C   0  0  0  0  0  0  0  0  0  0  0  0
    1.8535    0.9930   -1.0951 C   0  0  0  0  0  0  0  0  0  0  0  0
    1.1820    1.5703    0.1762 C   0  0  1  0  0  0  0  0  0  0  0  0
    1.9684    1.2229    1.3710 C   0  0  0  0  0  0  0  0  0  0  0  0
    2.5956    0.9459    2.3240 C   0  0  0  0  0  0  0  0  0  0  0  0
   -0.1521    1.0737    0.3007 O   0  0  0  0  0  0  0  0  0  0  0  0
    2.3098   11.0972   -1.8222 O   0  0  0  0  0  0  0  0  0  0  0  0
   -0.0049    5.6953    0.1693 O   0  0  0  0  0  0  0  0  0  0  0  0
   -1.0030    6.1287    1.0957 C   0  0  0  0  0  0  0  0  0  0  0  0
   -0.9515    3.4649   -0.1081 H   0  0  0  0  0  0  0  0  0  0  0  0
    0.0245    4.4901   -1.1873 H   0  0  0  0  0  0  0  0  0  0  0  0
   -0.2684    2.7847   -1.6044 H   0  0  0  0  0  0  0  0  0  0  0  0
    0.4835    3.7403    1.8981 H   0  0  0  0  0  0  0  0  0  0  0  0
    2.2575    3.7237    1.7061 H   0  0  0  0  0  0  0  0  0  0  0  0
    1.6926    7.8207    1.2114 H   0  0  0  0  0  0  0  0  0  0  0  0
    1.6583   10.1861    0.5507 H   0  0  0  0  0  0  0  0  0  0  0  0
    2.9802    9.0936   -3.3584 H   0  0  0  0  0  0  0  0  0  0  0  0
    2.2824    6.3486   -3.7405 H   0  0  0  0  0  0  0  0  0  0  0  0
    3.9838    6.8249   -3.5611 H   0  0  0  0  0  0  0  0  0  0  0  0
    4.3557    5.1659   -1.8533 H   0  0  0  0  0  0  0  0  0  0  0  0
    3.4926    4.3504   -3.1834 H   0  0  0  0  0  0  0  0  0  0  0  0
    1.5178    2.4592   -2.6908 H   0  0  0  0  0  0  0  0  0  0  0  0
    3.2410    2.0269   -2.4401 H   0  0  0  0  0  0  0  0  0  0  0  0
    2.7266    0.4009   -0.8210 H   0  0  0  0  0  0  0  0  0  0  0  0
    1.1425    0.3786   -1.6475 H   0  0  0  0  0  0  0  0  0  0  0  0
    3.1566    0.6981    3.1763 H   0  0  0  0  0  0  0  0  0  0  0  0
   -0.2060    0.1145    0.4109 H   0  0  0  0  0  0  0  0  0  0  0  0
    1.4662   11.3942   -2.1901 H   0  0  0  0  0  0  0  0  0  0  0  0
   -1.1669    5.3521    1.8428 H   0  0  0  0  0  0  0  0  0  0  0  0
   -0.6695    7.0421    1.5882 H   0  0  0  0  0  0  0  0  0  0  0  0
   -1.9338    6.3223    0.5626 H   0  0  0  0  0  0  0  0  0  0  0  0
  1  2  1  0  0  0  0
  1 29  1  0  0  0  0
  1 30  1  0  0  0  0
  1 31  1  0  0  0  0
  2 18  1  0  0  0  0
  2 22  1  0  0  0  0
  2  3  1  0  0  0  0
  3  4  1  0  0  0  0
  3 32  1  0  0  0  0
  3 33  1  0  0  0  0
  4  5  1  0  0  0  0
  4  6  1  0  0  0  0
  4 27  1  0  0  0  0
  6  7  1  0  0  0  0
  6 16  1  0  0  0  0
  6  8  1  0  0  0  0
  8 13  2  0  0  0  0
  8  9  1  0  0  0  0
  9 10  2  0  0  0  0
  9 34  1  0  0  0  0
 10 11  1  0  0  0  0
 10 35  1  0  0  0  0
 11 12  2  0  0  0  0
 11 26  1  0  0  0  0
 12 13  1  0  0  0  0
 12 36  1  0  0  0  0
 13 14  1  0  0  0  0
 14 15  1  0  0  0  0
 14 37  1  0  0  0  0
 14 38  1  0  0  0  0
 15 16  1  0  0  0  0
 15 39  1  0  0  0  0
 15 40  1  0  0  0  0
 16 17  1  0  0  0  0
 16 18  1  0  0  0  0
 18 19  1  0  0  0  0
 18 20  1  0  0  0  0
 20 21  1  0  0  0  0
 20 41  1  0  0  0  0
 20 42  1  0  0  0  0
 21 22  1  0  0  0  0
 21 43  1  0  0  0  0
 21 44  1  0  0  0  0
 22 23  1  0  0  0  0
 22 25  1  0  0  0  0
 23 24  3  0  0  0  0
 24 45  1  0  0  0  0
 25 46  1  0  0  0  0
 26 47  1  0  0  0  0
 27 28  1  0  0  0  0
 28 48  1  0  0  0  0
 28 49  1  0  0  0  0
 28 50  1  0  0  0  0
M  END
$$$$
