ZINC03861549
  -OEChem-08230709403D

 40 41  0     0  0  0  0  0  0999 V2000
    1.3265    2.0199    0.0173 C   0  0  0  0  0  0  0  0  0  0  0  0
   -0.0718    1.4002    0.0569 C   0  0  0  0  0  0  0  0  0  0  0  0
    0.0438   -0.1022    0.0363 C   0  0  0  0  0  0  0  0  0  0  0  0
    0.0373   -0.7920    1.1886 C   0  0  0  0  0  0  0  0  0  0  0  0
    0.2711   -2.2807    1.1768 C   0  0  0  0  0  0  0  0  0  0  0  0
   -1.0746   -3.0082    1.1479 C   0  0  0  0  0  0  0  0  0  0  0  0
   -0.1985   -0.0934    2.4642 C   0  0  0  0  0  0  0  0  0  0  0  0
    0.8272    0.0073    3.4085 C   0  0  0  0  0  0  0  0  0  0  0  0
    0.6036    0.6667    4.5977 C   0  0  0  0  0  0  0  0  0  0  0  0
   -0.6421    1.2204    4.8638 C   0  0  0  0  0  0  0  0  0  0  0  0
   -1.6661    1.1180    3.9310 C   0  0  0  0  0  0  0  0  0  0  0  0
   -1.4503    0.4659    2.7364 C   0  0  0  0  0  0  0  0  0  0  0  0
   -0.8595    1.8646    6.0401 O   0  0  0  0  0  0  0  0  0  0  0  0
    0.1639   -0.8143   -1.2480 C   0  0  0  0  0  0  0  0  0  0  0  0
    1.3627   -1.4467   -1.5896 C   0  0  0  0  0  0  0  0  0  0  0  0
    1.4684   -2.1163   -2.7894 C   0  0  0  0  0  0  0  0  0  0  0  0
    0.3900   -2.1532   -3.6639 C   0  0  0  0  0  0  0  0  0  0  0  0
   -0.8014   -1.5214   -3.3315 C   0  0  0  0  0  0  0  0  0  0  0  0
   -0.9187   -0.8546   -2.1313 C   0  0  0  0  0  0  0  0  0  0  0  0
    0.5008   -2.8098   -4.8482 O   0  0  0  0  0  0  0  0  0  0  0  0
    1.2475    3.1020    0.1214 H   0  0  0  0  0  0  0  0  0  0  0  0
    1.9249    1.6190    0.8354 H   0  0  0  0  0  0  0  0  0  0  0  0
    1.8033    1.7802   -0.9331 H   0  0  0  0  0  0  0  0  0  0  0  0
   -0.6413    1.7328   -0.8109 H   0  0  0  0  0  0  0  0  0  0  0  0
   -0.5821    1.7129    0.9680 H   0  0  0  0  0  0  0  0  0  0  0  0
    0.8492   -2.5508    0.2931 H   0  0  0  0  0  0  0  0  0  0  0  0
    0.8209   -2.5692    2.0727 H   0  0  0  0  0  0  0  0  0  0  0  0
   -1.5863   -2.7886    0.2108 H   0  0  0  0  0  0  0  0  0  0  0  0
   -0.9087   -4.0825    1.2282 H   0  0  0  0  0  0  0  0  0  0  0  0
   -1.6875   -2.6717    1.9841 H   0  0  0  0  0  0  0  0  0  0  0  0
    1.7947   -0.4271    3.2045 H   0  0  0  0  0  0  0  0  0  0  0  0
    1.3970    0.7494    5.3257 H   0  0  0  0  0  0  0  0  0  0  0  0
   -2.6330    1.5504    4.1422 H   0  0  0  0  0  0  0  0  0  0  0  0
   -2.2470    0.3874    2.0114 H   0  0  0  0  0  0  0  0  0  0  0  0
   -1.1819    1.2912    6.7488 H   0  0  0  0  0  0  0  0  0  0  0  0
    2.2033   -1.4145   -0.9123 H   0  0  0  0  0  0  0  0  0  0  0  0
    2.3926   -2.6097   -3.0519 H   0  0  0  0  0  0  0  0  0  0  0  0
   -1.6373   -1.5531   -4.0146 H   0  0  0  0  0  0  0  0  0  0  0  0
   -1.8458   -0.3642   -1.8733 H   0  0  0  0  0  0  0  0  0  0  0  0
    0.8190   -2.2579   -5.5757 H   0  0  0  0  0  0  0  0  0  0  0  0
  1  2  1  0  0  0  0
  1 21  1  0  0  0  0
  1 22  1  0  0  0  0
  1 23  1  0  0  0  0
  2  3  1  0  0  0  0
  2 24  1  0  0  0  0
  2 25  1  0  0  0  0
  3  4  2  0  0  0  0
  3 14  1  0  0  0  0
  4  5  1  0  0  0  0
  4  7  1  0  0  0  0
  5  6  1  0  0  0  0
  5 26  1  0  0  0  0
  5 27  1  0  0  0  0
  6 28  1  0  0  0  0
  6 29  1  0  0  0  0
  6 30  1  0  0  0  0
  7 12  2  0  0  0  0
  7  8  1  0  0  0  0
  8  9  2  0  0  0  0
  8 31  1  0  0  0  0
  9 10  1  0  0  0  0
  9 32  1  0  0  0  0
 10 11  2  0  0  0  0
 10 13  1  0  0  0  0
 11 12  1  0  0  0  0
 11 33  1  0  0  0  0
 12 34  1  0  0  0  0
 13 35  1  0  0  0  0
 14 19  2  0  0  0  0
 14 15  1  0  0  0  0
 15 16  2  0  0  0  0
 15 36  1  0  0  0  0
 16 17  1  0  0  0  0
 16 37  1  0  0  0  0
 17 18  2  0  0  0  0
 17 20  1  0  0  0  0
 18 19  1  0  0  0  0
 18 38  1  0  0  0  0
 19 39  1  0  0  0  0
 20 40  1  0  0  0  0
M  END
$$$$
