ZINC01668370
  -OEChem-08230709403D

 44 45  0     1  0  0  0  0  0999 V2000
   -2.4692    5.4492    3.8040 C   0  0  0  0  0  0  0  0  0  0  0  0
   -1.7278    5.0304    2.5328 C   0  0  0  0  0  0  0  0  0  0  0  0
   -1.5288    3.5134    2.5349 C   0  0  2  0  0  0  0  0  0  0  0  0
   -2.4920    3.0207    2.6677 H   0  0  0  0  0  0  0  0  0  0  0  0
   -0.6080    3.1290    3.6642 C   0  0  0  0  0  0  0  0  0  0  0  0
    0.6777    3.6356    3.7088 C   0  0  0  0  0  0  0  0  0  0  0  0
    1.5259    3.2868    4.7431 C   0  0  0  0  0  0  0  0  0  0  0  0
    1.0883    2.4273    5.7381 C   0  0  0  0  0  0  0  0  0  0  0  0
   -0.2056    1.9171    5.6930 C   0  0  0  0  0  0  0  0  0  0  0  0
   -1.0526    2.2753    4.6565 C   0  0  0  0  0  0  0  0  0  0  0  0
   -0.6397    1.0733    6.6672 O   0  0  0  0  0  0  0  0  0  0  0  0
    1.9213    2.0835    6.7566 O   0  0  0  0  0  0  0  0  0  0  0  0
   -0.9126    3.0780    1.2038 C   0  0  1  0  0  0  0  0  0  0  0  0
    0.0435    3.5824    1.0638 H   0  0  0  0  0  0  0  0  0  0  0  0
   -0.6937    1.5638    1.2141 C   0  0  0  0  0  0  0  0  0  0  0  0
    0.0355    1.1452   -0.0641 C   0  0  0  0  0  0  0  0  0  0  0  0
   -1.8431    3.4434    0.0761 C   0  0  0  0  0  0  0  0  0  0  0  0
   -3.1168    2.9074    0.0318 C   0  0  0  0  0  0  0  0  0  0  0  0
   -3.9761    3.2439   -0.9975 C   0  0  0  0  0  0  0  0  0  0  0  0
   -3.5577    4.1112   -1.9938 C   0  0  0  0  0  0  0  0  0  0  0  0
   -2.2738    4.6463   -1.9522 C   0  0  0  0  0  0  0  0  0  0  0  0
   -1.4194    4.3093   -0.9147 C   0  0  0  0  0  0  0  0  0  0  0  0
   -1.8586    5.4983   -2.9275 O   0  0  0  0  0  0  0  0  0  0  0  0
   -4.3997    4.4385   -3.0103 O   0  0  0  0  0  0  0  0  0  0  0  0
   -3.4639    5.0035    3.8080 H   0  0  0  0  0  0  0  0  0  0  0  0
   -1.9143    5.1072    4.6776 H   0  0  0  0  0  0  0  0  0  0  0  0
   -2.5576    6.5352    3.8319 H   0  0  0  0  0  0  0  0  0  0  0  0
   -0.7566    5.5242    2.4993 H   0  0  0  0  0  0  0  0  0  0  0  0
   -2.3125    5.3189    1.6594 H   0  0  0  0  0  0  0  0  0  0  0  0
    1.0200    4.3055    2.9339 H   0  0  0  0  0  0  0  0  0  0  0  0
    2.5295    3.6844    4.7760 H   0  0  0  0  0  0  0  0  0  0  0  0
   -2.0587    1.8843    4.6216 H   0  0  0  0  0  0  0  0  0  0  0  0
   -1.0538    1.5197    7.4184 H   0  0  0  0  0  0  0  0  0  0  0  0
    1.8733    2.6745    7.5205 H   0  0  0  0  0  0  0  0  0  0  0  0
   -1.6577    1.0577    1.2649 H   0  0  0  0  0  0  0  0  0  0  0  0
   -0.0932    1.2894    2.0814 H   0  0  0  0  0  0  0  0  0  0  0  0
    0.1915    0.0665   -0.0568 H   0  0  0  0  0  0  0  0  0  0  0  0
    0.9995    1.6514   -0.1148 H   0  0  0  0  0  0  0  0  0  0  0  0
   -0.5650    1.4196   -0.9314 H   0  0  0  0  0  0  0  0  0  0  0  0
   -3.4425    2.2276    0.8051 H   0  0  0  0  0  0  0  0  0  0  0  0
   -4.9719    2.8270   -1.0277 H   0  0  0  0  0  0  0  0  0  0  0  0
   -0.4226    4.7234   -0.8798 H   0  0  0  0  0  0  0  0  0  0  0  0
   -1.4377    5.0600   -3.6797 H   0  0  0  0  0  0  0  0  0  0  0  0
   -4.3425    3.8481   -3.7740 H   0  0  0  0  0  0  0  0  0  0  0  0
  1  2  1  0  0  0  0
  1 25  1  0  0  0  0
  1 26  1  0  0  0  0
  1 27  1  0  0  0  0
  2  3  1  0  0  0  0
  2 28  1  0  0  0  0
  2 29  1  0  0  0  0
  3  4  1  0  0  0  0
  3  5  1  0  0  0  0
  3 13  1  0  0  0  0
  5 10  2  0  0  0  0
  5  6  1  0  0  0  0
  6  7  2  0  0  0  0
  6 30  1  0  0  0  0
  7  8  1  0  0  0  0
  7 31  1  0  0  0  0
  8  9  2  0  0  0  0
  8 12  1  0  0  0  0
  9 10  1  0  0  0  0
  9 11  1  0  0  0  0
 10 32  1  0  0  0  0
 11 33  1  0  0  0  0
 12 34  1  0  0  0  0
 13 14  1  0  0  0  0
 13 15  1  0  0  0  0
 13 17  1  0  0  0  0
 15 16  1  0  0  0  0
 15 35  1  0  0  0  0
 15 36  1  0  0  0  0
 16 37  1  0  0  0  0
 16 38  1  0  0  0  0
 16 39  1  0  0  0  0
 17 22  2  0  0  0  0
 17 18  1  0  0  0  0
 18 19  2  0  0  0  0
 18 40  1  0  0  0  0
 19 20  1  0  0  0  0
 19 41  1  0  0  0  0
 20 21  2  0  0  0  0
 20 24  1  0  0  0  0
 21 22  1  0  0  0  0
 21 23  1  0  0  0  0
 22 42  1  0  0  0  0
 23 43  1  0  0  0  0
 24 44  1  0  0  0  0
M  END
$$$$
