ZINC03815446
  -OEChem-08230709403D

 33 35  0     0  0  0  0  0  0999 V2000
   -1.8121    2.2448    1.4696 C   0  0  0  0  0  0  0  0  0  0  0  0
   -1.3177    2.1095    0.0280 C   0  0  0  0  0  0  0  0  0  0  0  0
   -0.0130    1.3555    0.0130 C   0  0  0  0  0  0  0  0  0  0  0  0
    1.2518    2.0713    0.0014 C   0  0  0  0  0  0  0  0  0  0  0  0
    1.4750    3.4702    0.0067 C   0  0  0  0  0  0  0  0  0  0  0  0
    2.7369    3.9736   -0.0062 C   0  0  0  0  0  0  0  0  0  0  0  0
    3.8524    3.1393   -0.0255 C   0  0  0  0  0  0  0  0  0  0  0  0
    3.6746    1.7652   -0.0317 C   0  0  0  0  0  0  0  0  0  0  0  0
    2.3982    1.2460   -0.0183 C   0  0  0  0  0  0  0  0  0  0  0  0
    1.7343   -0.3994   -0.0200 S   0  0  0  0  0  0  0  0  0  0  0  0
   -0.0024    0.0015    0.0046 C   0  0  0  0  0  0  0  0  0  0  0  0
   -1.1557   -0.9234    0.0143 C   0  0  0  0  0  0  0  0  0  0  0  0
   -1.2028   -1.9736    0.9326 C   0  0  0  0  0  0  0  0  0  0  0  0
   -2.2826   -2.8307    0.9419 C   0  0  0  0  0  0  0  0  0  0  0  0
   -3.3173   -2.6568    0.0324 C   0  0  0  0  0  0  0  0  0  0  0  0
   -3.2714   -1.6168   -0.8865 C   0  0  0  0  0  0  0  0  0  0  0  0
   -2.1977   -0.7523   -0.8987 C   0  0  0  0  0  0  0  0  0  0  0  0
   -4.3773   -3.5069    0.0414 O   0  0  0  0  0  0  0  0  0  0  0  0
    5.1044    3.6687   -0.0376 O   0  0  0  0  0  0  0  0  0  0  0  0
   -1.9605    1.2533    1.8974 H   0  0  0  0  0  0  0  0  0  0  0  0
   -1.0721    2.7873    2.0581 H   0  0  0  0  0  0  0  0  0  0  0  0
   -2.7558    2.7902    1.4805 H   0  0  0  0  0  0  0  0  0  0  0  0
   -1.1693    3.1010   -0.3997 H   0  0  0  0  0  0  0  0  0  0  0  0
   -2.0577    1.5670   -0.5604 H   0  0  0  0  0  0  0  0  0  0  0  0
    0.6318    4.1448    0.0216 H   0  0  0  0  0  0  0  0  0  0  0  0
    2.8783    5.0443   -0.0017 H   0  0  0  0  0  0  0  0  0  0  0  0
    4.5300    1.1061   -0.0463 H   0  0  0  0  0  0  0  0  0  0  0  0
   -0.3965   -2.1120    1.6376 H   0  0  0  0  0  0  0  0  0  0  0  0
   -2.3219   -3.6408    1.6551 H   0  0  0  0  0  0  0  0  0  0  0  0
   -4.0778   -1.4853   -1.5927 H   0  0  0  0  0  0  0  0  0  0  0  0
   -2.1626    0.0562   -1.6140 H   0  0  0  0  0  0  0  0  0  0  0  0
   -4.2672   -4.2789   -0.5305 H   0  0  0  0  0  0  0  0  0  0  0  0
    5.4777    3.8162    0.8422 H   0  0  0  0  0  0  0  0  0  0  0  0
  1  2  1  0  0  0  0
  1 20  1  0  0  0  0
  1 21  1  0  0  0  0
  1 22  1  0  0  0  0
  2  3  1  0  0  0  0
  2 23  1  0  0  0  0
  2 24  1  0  0  0  0
  3 11  2  0  0  0  0
  3  4  1  0  0  0  0
  4  9  2  0  0  0  0
  4  5  1  0  0  0  0
  5  6  2  0  0  0  0
  5 25  1  0  0  0  0
  6  7  1  0  0  0  0
  6 26  1  0  0  0  0
  7  8  2  0  0  0  0
  7 19  1  0  0  0  0
  8  9  1  0  0  0  0
  8 27  1  0  0  0  0
  9 10  1  0  0  0  0
 10 11  1  0  0  0  0
 11 12  1  0  0  0  0
 12 17  2  0  0  0  0
 12 13  1  0  0  0  0
 13 14  2  0  0  0  0
 13 28  1  0  0  0  0
 14 15  1  0  0  0  0
 14 29  1  0  0  0  0
 15 16  2  0  0  0  0
 15 18  1  0  0  0  0
 16 17  1  0  0  0  0
 16 30  1  0  0  0  0
 17 31  1  0  0  0  0
 18 32  1  0  0  0  0
 19 33  1  0  0  0  0
M  END
$$$$
