ZINC00057656
  -OEChem-08230709403D

 29 31  0     0  0  0  0  0  0999 V2000
   -3.6964    3.3248    0.0473 C   0  0  0  0  0  0  0  0  0  0  0  0
   -4.8897    4.0122    0.0669 C   0  0  0  0  0  0  0  0  0  0  0  0
   -4.8934    5.4019    0.0740 C   0  0  0  0  0  0  0  0  0  0  0  0
   -3.6940    6.1041    0.0673 C   0  0  0  0  0  0  0  0  0  0  0  0
   -2.4961    5.4249    0.0530 C   0  0  0  0  0  0  0  0  0  0  0  0
   -2.4877    4.0270    0.0458 C   0  0  0  0  0  0  0  0  0  0  0  0
   -1.2073    3.2952    0.0305 C   0  0  0  0  0  0  0  0  0  0  0  0
   -1.2314    1.9337    0.0182 C   0  0  0  0  0  0  0  0  0  0  0  0
   -0.0145    1.2159    0.0087 C   0  0  0  0  0  0  0  0  0  0  0  0
    0.0021   -0.0041    0.0020 O   0  0  0  0  0  0  0  0  0  0  0  0
    1.2367    2.0005    0.0010 C   0  0  0  0  0  0  0  0  0  0  0  0
    2.4824    1.3759   -0.0148 C   0  0  0  0  0  0  0  0  0  0  0  0
    3.6306    2.1457   -0.0216 C   0  0  0  0  0  0  0  0  0  0  0  0
    3.5414    3.5345   -0.0128 C   0  0  0  0  0  0  0  0  0  0  0  0
    2.3130    4.1590    0.0024 C   0  0  0  0  0  0  0  0  0  0  0  0
    1.1482    3.4011    0.0095 C   0  0  0  0  0  0  0  0  0  0  0  0
   -0.0635    3.9966    0.0239 O   0  0  0  0  0  0  0  0  0  0  0  0
    4.8500    1.5446   -0.0366 O   0  0  0  0  0  0  0  0  0  0  0  0
   -6.0719    6.0755    0.0872 O   0  0  0  0  0  0  0  0  0  0  0  0
   -3.6945    2.2449    0.0369 H   0  0  0  0  0  0  0  0  0  0  0  0
   -5.8239    3.4704    0.0722 H   0  0  0  0  0  0  0  0  0  0  0  0
   -3.7015    7.1841    0.0729 H   0  0  0  0  0  0  0  0  0  0  0  0
   -1.5646    5.9713    0.0470 H   0  0  0  0  0  0  0  0  0  0  0  0
   -2.1739    1.4063    0.0194 H   0  0  0  0  0  0  0  0  0  0  0  0
    2.5502    0.2980   -0.0216 H   0  0  0  0  0  0  0  0  0  0  0  0
    4.4434    4.1285   -0.0182 H   0  0  0  0  0  0  0  0  0  0  0  0
    2.2555    5.2374    0.0085 H   0  0  0  0  0  0  0  0  0  0  0  0
    5.2110    1.3656    0.8424 H   0  0  0  0  0  0  0  0  0  0  0  0
   -6.4209    6.2749   -0.7923 H   0  0  0  0  0  0  0  0  0  0  0  0
  1  6  2  0  0  0  0
  1  2  1  0  0  0  0
  1 20  1  0  0  0  0
  2  3  2  0  0  0  0
  2 21  1  0  0  0  0
  3  4  1  0  0  0  0
  3 19  1  0  0  0  0
  4  5  2  0  0  0  0
  4 22  1  0  0  0  0
  5  6  1  0  0  0  0
  5 23  1  0  0  0  0
  6  7  1  0  0  0  0
  7 17  1  0  0  0  0
  7  8  2  0  0  0  0
  8  9  1  0  0  0  0
  8 24  1  0  0  0  0
  9 10  2  0  0  0  0
  9 11  1  0  0  0  0
 11 16  2  0  0  0  0
 11 12  1  0  0  0  0
 12 13  2  0  0  0  0
 12 25  1  0  0  0  0
 13 14  1  0  0  0  0
 13 18  1  0  0  0  0
 14 15  2  0  0  0  0
 14 26  1  0  0  0  0
 15 16  1  0  0  0  0
 15 27  1  0  0  0  0
 16 17  1  0  0  0  0
 18 28  1  0  0  0  0
 19 29  1  0  0  0  0
M  END
$$$$
