ZINC03815432
  -OEChem-08230709403D

 45 48  0     1  0  0  0  0  0999 V2000
   -2.2275    1.1643   -1.1220 C   0  0  0  0  0  0  0  0  0  0  0  0
   -0.7620    1.5958   -1.2050 C   0  0  2  0  0  0  0  0  0  0  0  0
   -0.0167    1.1012    0.0168 C   0  0  0  0  0  0  0  0  0  0  0  0
   -0.7602    1.6214    1.2620 C   0  0  0  0  0  0  0  0  0  0  0  0
   -0.8687    3.1391    1.2268 C   0  0  2  0  0  0  0  0  0  0  0  0
    0.1465    3.5357    1.2419 H   0  0  0  0  0  0  0  0  0  0  0  0
   -1.5922    3.6768    2.4269 C   0  0  0  0  0  0  0  0  0  0  0  0
   -1.4208    3.0286    3.6428 C   0  0  0  0  0  0  0  0  0  0  0  0
   -2.0417    3.4956    4.7816 C   0  0  0  0  0  0  0  0  0  0  0  0
   -2.8465    4.6237    4.7112 C   0  0  0  0  0  0  0  0  0  0  0  0
   -3.0223    5.2661    3.4981 C   0  0  0  0  0  0  0  0  0  0  0  0
   -2.3993    4.7929    2.3510 C   0  0  0  0  0  0  0  0  0  0  0  0
   -2.6453    5.5373    1.0651 C   0  0  2  0  0  0  0  0  0  0  0  0
   -3.6464    5.3032    0.7030 H   0  0  0  0  0  0  0  0  0  0  0  0
   -1.6235    5.1510   -0.0036 C   0  0  0  0  0  0  0  0  0  0  0  0
   -1.5457    3.6254   -0.0610 C   0  0  1  0  0  0  0  0  0  0  0  0
   -2.5490    3.2086   -0.1485 H   0  0  0  0  0  0  0  0  0  0  0  0
   -0.6908    3.1484   -1.2170 C   0  0  2  0  0  0  0  0  0  0  0  0
    0.3401    3.4860   -1.1097 H   0  0  0  0  0  0  0  0  0  0  0  0
   -1.2169    3.4688   -2.6203 C   0  0  0  0  0  0  0  0  0  0  0  0
   -0.5310    2.3912   -3.5038 C   0  0  0  0  0  0  0  0  0  0  0  0
   -0.1908    1.2075   -2.5639 C   0  0  2  0  0  0  0  0  0  0  0  0
    0.8890    1.0755   -2.4960 H   0  0  0  0  0  0  0  0  0  0  0  0
   -0.8070    0.0076   -3.0356 O   0  0  0  0  0  0  0  0  0  0  0  0
   -2.5552    6.9418    1.3128 O   0  0  0  0  0  0  0  0  0  0  0  0
   -3.4598    5.0954    5.8285 O   0  0  0  0  0  0  0  0  0  0  0  0
   -2.6526    1.5016   -0.1766 H   0  0  0  0  0  0  0  0  0  0  0  0
   -2.7838    1.6062   -1.9487 H   0  0  0  0  0  0  0  0  0  0  0  0
   -2.2903    0.0778   -1.1815 H   0  0  0  0  0  0  0  0  0  0  0  0
   -0.0012    0.0113    0.0241 H   0  0  0  0  0  0  0  0  0  0  0  0
    1.0034    1.4851    0.0081 H   0  0  0  0  0  0  0  0  0  0  0  0
   -1.7613    1.1912    1.2885 H   0  0  0  0  0  0  0  0  0  0  0  0
   -0.2164    1.3198    2.1572 H   0  0  0  0  0  0  0  0  0  0  0  0
   -0.7953    2.1499    3.6969 H   0  0  0  0  0  0  0  0  0  0  0  0
   -1.9021    2.9862    5.7236 H   0  0  0  0  0  0  0  0  0  0  0  0
   -3.6496    6.1436    3.4432 H   0  0  0  0  0  0  0  0  0  0  0  0
   -0.6470    5.5594    0.2566 H   0  0  0  0  0  0  0  0  0  0  0  0
   -1.9385    5.5398   -0.9720 H   0  0  0  0  0  0  0  0  0  0  0  0
   -0.9127    4.4696   -2.9269 H   0  0  0  0  0  0  0  0  0  0  0  0
   -2.3014    3.3676   -2.6609 H   0  0  0  0  0  0  0  0  0  0  0  0
    0.3814    2.7935   -3.9440 H   0  0  0  0  0  0  0  0  0  0  0  0
   -1.2120    2.0619   -4.2886 H   0  0  0  0  0  0  0  0  0  0  0  0
   -0.4830   -0.2885   -3.8972 H   0  0  0  0  0  0  0  0  0  0  0  0
   -3.1749    7.2637    1.9817 H   0  0  0  0  0  0  0  0  0  0  0  0
   -2.9364    5.7425    6.3210 H   0  0  0  0  0  0  0  0  0  0  0  0
  1  2  1  0  0  0  0
  1 27  1  0  0  0  0
  1 28  1  0  0  0  0
  1 29  1  0  0  0  0
  2 18  1  0  0  0  0
  2 22  1  0  0  0  0
  2  3  1  0  0  0  0
  3  4  1  0  0  0  0
  3 30  1  0  0  0  0
  3 31  1  0  0  0  0
  4  5  1  0  0  0  0
  4 32  1  0  0  0  0
  4 33  1  0  0  0  0
  5  6  1  0  0  0  0
  5 16  1  0  0  0  0
  5  7  1  0  0  0  0
  7 12  2  0  0  0  0
  7  8  1  0  0  0  0
  8  9  2  0  0  0  0
  8 34  1  0  0  0  0
  9 10  1  0  0  0  0
  9 35  1  0  0  0  0
 10 11  2  0  0  0  0
 10 26  1  0  0  0  0
 11 12  1  0  0  0  0
 11 36  1  0  0  0  0
 12 13  1  0  0  0  0
 13 14  1  0  0  0  0
 13 15  1  0  0  0  0
 13 25  1  0  0  0  0
 15 16  1  0  0  0  0
 15 37  1  0  0  0  0
 15 38  1  0  0  0  0
 16 17  1  0  0  0  0
 16 18  1  0  0  0  0
 18 19  1  0  0  0  0
 18 20  1  0  0  0  0
 20 21  1  0  0  0  0
 20 39  1  0  0  0  0
 20 40  1  0  0  0  0
 21 22  1  0  0  0  0
 21 41  1  0  0  0  0
 21 42  1  0  0  0  0
 22 23  1  0  0  0  0
 22 24  1  0  0  0  0
 24 43  1  0  0  0  0
 25 44  1  0  0  0  0
 26 45  1  0  0  0  0
M  END
$$$$
