ZINC03814364
  -OEChem-08230709403D

 44 47  0     1  0  0  0  0  0999 V2000
   -4.1826    5.0885    2.7463 C   0  0  0  0  0  0  0  0  0  0  0  0
   -4.7739    5.1581    1.3369 C   0  0  2  0  0  0  0  0  0  0  0  0
   -4.9838    3.7670    0.7717 C   0  0  0  0  0  0  0  0  0  0  0  0
   -3.6254    3.0411    0.8012 C   0  0  0  0  0  0  0  0  0  0  0  0
   -2.5807    3.8226    0.0179 C   0  0  2  0  0  0  0  0  0  0  0  0
   -2.9221    3.8732   -1.0160 H   0  0  0  0  0  0  0  0  0  0  0  0
   -1.2439    3.1405    0.0296 C   0  0  0  0  0  0  0  0  0  0  0  0
   -1.2136    1.7524    0.0173 C   0  0  0  0  0  0  0  0  0  0  0  0
   -0.0126    1.0758    0.0080 C   0  0  0  0  0  0  0  0  0  0  0  0
    1.1774    1.7895    0.0004 C   0  0  0  0  0  0  0  0  0  0  0  0
    1.1473    3.1731    0.0130 C   0  0  0  0  0  0  0  0  0  0  0  0
   -0.0629    3.8535    0.0328 C   0  0  0  0  0  0  0  0  0  0  0  0
   -0.0175    5.3584    0.0700 C   0  0  0  0  0  0  0  0  0  0  0  0
   -1.3585    5.9567   -0.2746 C   0  0  0  0  0  0  0  0  0  0  0  0
   -2.4466    5.2588    0.5410 C   0  0  1  0  0  0  0  0  0  0  0  0
   -2.1635    5.2422    1.5934 H   0  0  0  0  0  0  0  0  0  0  0  0
   -3.8021    5.9130    0.3873 C   0  0  2  0  0  0  0  0  0  0  0  0
   -4.1418    5.8211   -0.6443 H   0  0  0  0  0  0  0  0  0  0  0  0
   -3.9240    7.3624    0.8445 C   0  0  0  0  0  0  0  0  0  0  0  0
   -5.3638    7.4974    1.4000 C   0  0  0  0  0  0  0  0  0  0  0  0
   -5.9967    6.0808    1.3255 C   0  0  2  0  0  0  0  0  0  0  0  0
   -6.5629    5.9595    0.4020 H   0  0  0  0  0  0  0  0  0  0  0  0
   -6.8284    5.8382    2.4620 O   0  0  0  0  0  0  0  0  0  0  0  0
    2.3670    1.1328   -0.0187 O   0  0  0  0  0  0  0  0  0  0  0  0
   -4.0253    6.0986    3.1246 H   0  0  0  0  0  0  0  0  0  0  0  0
   -4.8715    4.5577    3.4035 H   0  0  0  0  0  0  0  0  0  0  0  0
   -3.2300    4.5597    2.7150 H   0  0  0  0  0  0  0  0  0  0  0  0
   -5.7059    3.2250    1.3823 H   0  0  0  0  0  0  0  0  0  0  0  0
   -5.3451    3.8356   -0.2544 H   0  0  0  0  0  0  0  0  0  0  0  0
   -3.7379    2.0506    0.3603 H   0  0  0  0  0  0  0  0  0  0  0  0
   -3.2959    2.9379    1.8351 H   0  0  0  0  0  0  0  0  0  0  0  0
   -2.1400    1.1973    0.0192 H   0  0  0  0  0  0  0  0  0  0  0  0
    0.0021   -0.0041    0.0020 H   0  0  0  0  0  0  0  0  0  0  0  0
    2.0735    3.7285    0.0077 H   0  0  0  0  0  0  0  0  0  0  0  0
    0.2637    5.6824    1.0720 H   0  0  0  0  0  0  0  0  0  0  0  0
    0.7299    5.7107   -0.6409 H   0  0  0  0  0  0  0  0  0  0  0  0
   -1.5436    5.8073   -1.3384 H   0  0  0  0  0  0  0  0  0  0  0  0
   -1.3561    7.0229   -0.0481 H   0  0  0  0  0  0  0  0  0  0  0  0
   -3.1958    7.5739    1.6274 H   0  0  0  0  0  0  0  0  0  0  0  0
   -3.7781    8.0378    0.0015 H   0  0  0  0  0  0  0  0  0  0  0  0
   -5.3352    7.8404    2.4342 H   0  0  0  0  0  0  0  0  0  0  0  0
   -5.9362    8.1963    0.7901 H   0  0  0  0  0  0  0  0  0  0  0  0
   -7.5748    6.4479    2.5405 H   0  0  0  0  0  0  0  0  0  0  0  0
    2.7013    0.9502   -0.9076 H   0  0  0  0  0  0  0  0  0  0  0  0
  1  2  1  0  0  0  0
  1 25  1  0  0  0  0
  1 26  1  0  0  0  0
  1 27  1  0  0  0  0
  2 17  1  0  0  0  0
  2 21  1  0  0  0  0
  2  3  1  0  0  0  0
  3  4  1  0  0  0  0
  3 28  1  0  0  0  0
  3 29  1  0  0  0  0
  4  5  1  0  0  0  0
  4 30  1  0  0  0  0
  4 31  1  0  0  0  0
  5  6  1  0  0  0  0
  5 15  1  0  0  0  0
  5  7  1  0  0  0  0
  7 12  2  0  0  0  0
  7  8  1  0  0  0  0
  8  9  2  0  0  0  0
  8 32  1  0  0  0  0
  9 10  1  0  0  0  0
  9 33  1  0  0  0  0
 10 11  2  0  0  0  0
 10 24  1  0  0  0  0
 11 12  1  0  0  0  0
 11 34  1  0  0  0  0
 12 13  1  0  0  0  0
 13 14  1  0  0  0  0
 13 35  1  0  0  0  0
 13 36  1  0  0  0  0
 14 15  1  0  0  0  0
 14 37  1  0  0  0  0
 14 38  1  0  0  0  0
 15 16  1  0  0  0  0
 15 17  1  0  0  0  0
 17 18  1  0  0  0  0
 17 19  1  0  0  0  0
 19 20  1  0  0  0  0
 19 39  1  0  0  0  0
 19 40  1  0  0  0  0
 20 21  1  0  0  0  0
 20 41  1  0  0  0  0
 20 42  1  0  0  0  0
 21 22  1  0  0  0  0
 21 23  1  0  0  0  0
 23 43  1  0  0  0  0
 24 44  1  0  0  0  0
M  END
$$$$
