ZINC00039316
  -OEChem-08230709403D

 30 32  0     0  0  0  0  0  0999 V2000
    1.8588    1.0093   -3.5415 C   0  0  0  0  0  0  0  0  0  0  0  0
    1.2019    0.7165   -4.7162 C   0  0  0  0  0  0  0  0  0  0  0  0
   -0.1655    0.9394   -4.8243 C   0  0  0  0  0  0  0  0  0  0  0  0
   -0.8773    1.4531   -3.7471 C   0  0  0  0  0  0  0  0  0  0  0  0
   -0.2298    1.7434   -2.5666 C   0  0  0  0  0  0  0  0  0  0  0  0
    1.1457    1.5209   -2.4532 C   0  0  0  0  0  0  0  0  0  0  0  0
    1.8433    1.8305   -1.1919 C   0  0  0  0  0  0  0  0  0  0  0  0
    1.3058    1.3820   -0.0093 C   0  0  0  0  0  0  0  0  0  0  0  0
    1.9649    1.6788    1.2092 C   0  0  0  0  0  0  0  0  0  0  0  0
    1.5167    1.3027    2.2803 O   0  0  0  0  0  0  0  0  0  0  0  0
    3.2169    2.4558    1.1326 C   0  0  0  0  0  0  0  0  0  0  0  0
    3.9317    2.7874    2.2833 C   0  0  0  0  0  0  0  0  0  0  0  0
    5.0976    3.5212    2.1736 C   0  0  0  0  0  0  0  0  0  0  0  0
    5.5535    3.9269    0.9226 C   0  0  0  0  0  0  0  0  0  0  0  0
    4.8528    3.6035   -0.2187 C   0  0  0  0  0  0  0  0  0  0  0  0
    3.6782    2.8652   -0.1284 C   0  0  0  0  0  0  0  0  0  0  0  0
    2.9820    2.5415   -1.2385 O   0  0  0  0  0  0  0  0  0  0  0  0
    5.8009    3.8479    3.2904 O   0  0  0  0  0  0  0  0  0  0  0  0
    0.1493    0.6648   -0.0082 O   0  0  0  0  0  0  0  0  0  0  0  0
   -0.8079    0.6546   -5.9862 O   0  0  0  0  0  0  0  0  0  0  0  0
    2.9222    0.8396   -3.4597 H   0  0  0  0  0  0  0  0  0  0  0  0
    1.7512    0.3174   -5.5561 H   0  0  0  0  0  0  0  0  0  0  0  0
   -1.9399    1.6247   -3.8355 H   0  0  0  0  0  0  0  0  0  0  0  0
   -0.7839    2.1427   -1.7299 H   0  0  0  0  0  0  0  0  0  0  0  0
    3.5768    2.4724    3.2535 H   0  0  0  0  0  0  0  0  0  0  0  0
    6.4655    4.5004    0.8458 H   0  0  0  0  0  0  0  0  0  0  0  0
    5.2163    3.9234   -1.1841 H   0  0  0  0  0  0  0  0  0  0  0  0
    5.5401    4.6905    3.6869 H   0  0  0  0  0  0  0  0  0  0  0  0
    0.2790   -0.2907   -0.0808 H   0  0  0  0  0  0  0  0  0  0  0  0
   -0.8373    1.3926   -6.6104 H   0  0  0  0  0  0  0  0  0  0  0  0
  1  6  2  0  0  0  0
  1  2  1  0  0  0  0
  1 21  1  0  0  0  0
  2  3  2  0  0  0  0
  2 22  1  0  0  0  0
  3  4  1  0  0  0  0
  3 20  1  0  0  0  0
  4  5  2  0  0  0  0
  4 23  1  0  0  0  0
  5  6  1  0  0  0  0
  5 24  1  0  0  0  0
  6  7  1  0  0  0  0
  7 17  1  0  0  0  0
  7  8  2  0  0  0  0
  8  9  1  0  0  0  0
  8 19  1  0  0  0  0
  9 10  2  0  0  0  0
  9 11  1  0  0  0  0
 11 16  2  0  0  0  0
 11 12  1  0  0  0  0
 12 13  2  0  0  0  0
 12 25  1  0  0  0  0
 13 14  1  0  0  0  0
 13 18  1  0  0  0  0
 14 15  2  0  0  0  0
 14 26  1  0  0  0  0
 15 16  1  0  0  0  0
 15 27  1  0  0  0  0
 16 17  1  0  0  0  0
 18 28  1  0  0  0  0
 19 29  1  0  0  0  0
 20 30  1  0  0  0  0
M  END
$$$$
