ZINC03814379
  -OEChem-08230709403D

 46 49  0     1  0  0  0  0  0999 V2000
   -0.9002    3.1063    1.1676 C   0  0  0  0  0  0  0  0  0  0  0  0
   -0.7446    1.5859    1.2388 C   0  0  2  0  0  0  0  0  0  0  0  0
    0.0203    1.0901    0.0265 C   0  0  0  0  0  0  0  0  0  0  0  0
   -0.7128    1.6125   -1.2191 C   0  0  0  0  0  0  0  0  0  0  0  0
   -2.1691    1.1581   -1.2496 C   0  0  1  0  0  0  0  0  0  0  0  0
   -2.2002    0.0749   -1.3679 H   0  0  0  0  0  0  0  0  0  0  0  0
   -2.9128    1.5415    0.0378 C   0  0  2  0  0  0  0  0  0  0  0  0
   -2.9478    2.6263    0.1390 H   0  0  0  0  0  0  0  0  0  0  0  0
   -2.1518    0.9359    1.2034 C   0  0  2  0  0  0  0  0  0  0  0  0
   -2.0650   -0.1436    1.0792 H   0  0  0  0  0  0  0  0  0  0  0  0
   -2.6928    1.2710    2.5978 C   0  0  0  0  0  0  0  0  0  0  0  0
   -1.4565    1.0531    3.5121 C   0  0  0  0  0  0  0  0  0  0  0  0
   -0.2098    1.2196    2.6079 C   0  0  2  0  0  0  0  0  0  0  0  0
    0.3385    0.2797    2.5439 H   0  0  0  0  0  0  0  0  0  0  0  0
    0.6369    2.2520    3.1172 O   0  0  0  0  0  0  0  0  0  0  0  0
   -4.3294    0.9619   -0.0117 C   0  0  0  0  0  0  0  0  0  0  0  0
   -5.1061    1.6288   -1.1492 C   0  0  0  0  0  0  0  0  0  0  0  0
   -4.3273    1.4526   -2.4401 C   0  0  0  0  0  0  0  0  0  0  0  0
   -4.9889    1.0042   -3.5066 C   0  0  0  0  0  0  0  0  0  0  0  0
   -4.3004    0.8657   -4.7808 C   0  0  0  0  0  0  0  0  0  0  0  0
   -4.7256    0.1358   -5.6517 O   0  0  0  0  0  0  0  0  0  0  0  0
   -3.0214    1.6604   -4.9587 C   0  0  0  0  0  0  0  0  0  0  0  0
   -2.1557    1.4157   -3.7235 C   0  0  0  0  0  0  0  0  0  0  0  0
   -2.8741    1.8107   -2.4453 C   0  0  2  0  0  0  0  0  0  0  0  0
   -2.7830    2.8918   -2.3401 H   0  0  0  0  0  0  0  0  0  0  0  0
   -1.3917    3.3779    0.2334 H   0  0  0  0  0  0  0  0  0  0  0  0
   -1.5030    3.4496    2.0084 H   0  0  0  0  0  0  0  0  0  0  0  0
    0.0832    3.5746    1.2103 H   0  0  0  0  0  0  0  0  0  0  0  0
    0.0366    0.0002    0.0180 H   0  0  0  0  0  0  0  0  0  0  0  0
    1.0393    1.4763    0.0469 H   0  0  0  0  0  0  0  0  0  0  0  0
   -0.6804    2.7020   -1.2197 H   0  0  0  0  0  0  0  0  0  0  0  0
   -0.2072    1.2416   -2.1107 H   0  0  0  0  0  0  0  0  0  0  0  0
   -3.0279    2.3072    2.6427 H   0  0  0  0  0  0  0  0  0  0  0  0
   -3.4998    0.5914    2.8719 H   0  0  0  0  0  0  0  0  0  0  0  0
   -1.4437    1.7980    4.3078 H   0  0  0  0  0  0  0  0  0  0  0  0
   -1.4784    0.0501    3.9382 H   0  0  0  0  0  0  0  0  0  0  0  0
    0.9806    2.0771    4.0040 H   0  0  0  0  0  0  0  0  0  0  0  0
   -4.2774   -0.1126   -0.1873 H   0  0  0  0  0  0  0  0  0  0  0  0
   -4.8345    1.1530    0.9351 H   0  0  0  0  0  0  0  0  0  0  0  0
   -6.0857    1.1608   -1.2464 H   0  0  0  0  0  0  0  0  0  0  0  0
   -5.2256    2.6911   -0.9365 H   0  0  0  0  0  0  0  0  0  0  0  0
   -6.0401    0.7685   -3.4302 H   0  0  0  0  0  0  0  0  0  0  0  0
   -3.2422    2.6315   -5.0491 H   0  0  0  0  0  0  0  0  0  0  0  0
   -2.4963    1.3222   -5.8520 H   0  0  0  0  0  0  0  0  0  0  0  0
   -1.2392    1.9992   -3.8108 H   0  0  0  0  0  0  0  0  0  0  0  0
   -1.8983    0.3577   -3.6740 H   0  0  0  0  0  0  0  0  0  0  0  0
  1  2  1  0  0  0  0
  1 26  1  0  0  0  0
  1 27  1  0  0  0  0
  1 28  1  0  0  0  0
  2  9  1  0  0  0  0
  2 13  1  0  0  0  0
  2  3  1  0  0  0  0
  3  4  1  0  0  0  0
  3 29  1  0  0  0  0
  3 30  1  0  0  0  0
  4  5  1  0  0  0  0
  4 31  1  0  0  0  0
  4 32  1  0  0  0  0
  5  6  1  0  0  0  0
  5 24  1  0  0  0  0
  5  7  1  0  0  0  0
  7  8  1  0  0  0  0
  7  9  1  0  0  0  0
  7 16  1  0  0  0  0
  9 10  1  0  0  0  0
  9 11  1  0  0  0  0
 11 12  1  0  0  0  0
 11 33  1  0  0  0  0
 11 34  1  0  0  0  0
 12 13  1  0  0  0  0
 12 35  1  0  0  0  0
 12 36  1  0  0  0  0
 13 14  1  0  0  0  0
 13 15  1  0  0  0  0
 15 37  1  0  0  0  0
 16 17  1  0  0  0  0
 16 38  1  0  0  0  0
 16 39  1  0  0  0  0
 17 18  1  0  0  0  0
 17 40  1  0  0  0  0
 17 41  1  0  0  0  0
 18 24  1  0  0  0  0
 18 19  2  0  0  0  0
 19 20  1  0  0  0  0
 19 42  1  0  0  0  0
 20 21  2  0  0  0  0
 20 22  1  0  0  0  0
 22 23  1  0  0  0  0
 22 43  1  0  0  0  0
 22 44  1  0  0  0  0
 23 24  1  0  0  0  0
 23 45  1  0  0  0  0
 23 46  1  0  0  0  0
 24 25  1  0  0  0  0
M  END
$$$$
