ZINC03832290
  -OEChem-08230709403D

 78 83  0     1  0  0  0  0  0999 V2000
    4.1142   -1.1791   -1.4677 C   0  0  0  0  0  0  0  0  0  0  0  0
    4.8030    0.1109   -1.3801 N   0  0  0  0  0  0  0  0  0  0  0  0
    4.7971    0.8604   -0.1214 C   0  0  0  0  0  0  0  0  0  0  0  0
    3.5858    1.7946   -0.0897 C   0  0  0  0  0  0  0  0  0  0  0  0
    2.3860    1.0184   -0.0732 O   0  0  0  0  0  0  0  0  0  0  0  0
    1.2107    1.7000   -0.0444 C   0  0  0  0  0  0  0  0  0  0  0  0
    0.0074    1.0097   -0.0271 C   0  0  0  0  0  0  0  0  0  0  0  0
   -1.1861    1.7049   -0.0041 C   0  0  0  0  0  0  0  0  0  0  0  0
   -1.1820    3.0875    0.0128 C   0  0  0  0  0  0  0  0  0  0  0  0
    0.0159    3.7778   -0.0040 C   0  0  0  0  0  0  0  0  0  0  0  0
    1.2120    3.0873   -0.0328 C   0  0  0  0  0  0  0  0  0  0  0  0
   -2.4854    3.8433    0.0437 C   0  0  0  0  0  0  0  0  0  0  0  0
   -2.9537    4.1112   -1.3880 C   0  0  2  0  0  0  0  0  0  0  0  0
   -2.1657    4.6260   -1.9377 H   0  0  0  0  0  0  0  0  0  0  0  0
   -4.1906    4.9716   -1.3593 C   0  0  0  0  0  0  0  0  0  0  0  0
   -5.2212    4.5642   -1.8408 O   0  0  0  0  0  0  0  0  0  0  0  0
   -3.2587    2.8393   -2.0481 N   0  0  0  0  0  0  0  0  0  0  0  0
   -3.1965    2.7429   -3.4303 C   0  0  0  0  0  0  0  0  0  0  0  0
   -2.9591    3.8753   -4.1999 C   0  0  0  0  0  0  0  0  0  0  0  0
   -2.8929    3.7761   -5.5741 C   0  0  0  0  0  0  0  0  0  0  0  0
   -3.0724    2.5518   -6.2008 C   0  0  0  0  0  0  0  0  0  0  0  0
   -3.3139    1.4184   -5.4584 C   0  0  0  0  0  0  0  0  0  0  0  0
   -3.3792    1.4994   -4.0617 C   0  0  0  0  0  0  0  0  0  0  0  0
   -3.6356    0.2962   -3.2633 C   0  0  0  0  0  0  0  0  0  0  0  0
   -3.7943    0.3866   -2.0639 O   0  0  0  0  0  0  0  0  0  0  0  0
   -3.7020   -1.0523   -3.9326 C   0  0  1  0  0  0  0  0  0  0  0  0
   -4.0361   -0.9436   -4.8688 H   0  0  0  0  0  0  0  0  0  0  0  0
   -2.3275   -1.6504   -3.9714 C   0  0  0  0  0  0  0  0  0  0  0  0
   -1.9305   -2.5772   -3.1888 C   0  0  0  0  0  0  0  0  0  0  0  0
   -2.7929   -3.2501   -2.1669 C   0  0  0  0  0  0  0  0  0  0  0  0
   -4.0293   -2.4018   -1.8453 C   0  0  1  0  0  0  0  0  0  0  0  0
   -3.7623   -1.5461   -1.2252 H   0  0  0  0  0  0  0  0  0  0  0  0
   -4.6644   -1.9436   -3.1642 C   0  0  2  0  0  0  0  0  0  0  0  0
   -5.5667   -1.3747   -2.9399 H   0  0  0  0  0  0  0  0  0  0  0  0
   -5.0619   -3.1524   -3.9655 C   0  0  0  0  0  0  0  0  0  0  0  0
   -5.5852   -4.1991   -3.3241 C   0  0  0  0  0  0  0  0  0  0  0  0
   -5.7692   -4.1303   -1.8637 C   0  0  0  0  0  0  0  0  0  0  0  0
   -5.0377   -3.2875   -1.1391 C   0  0  0  0  0  0  0  0  0  0  0  0
    5.4556    0.6188   -2.4805 C   0  0  0  0  0  0  0  0  0  0  0  0
    6.0950    1.7600   -2.5125 N   0  0  0  0  0  0  0  0  0  0  0  0
    6.6169    1.9331   -3.7580 C   0  0  0  0  0  0  0  0  0  0  0  0
    7.3773    2.9408   -4.3526 C   0  0  0  0  0  0  0  0  0  0  0  0
    7.7551    2.8233   -5.6723 C   0  0  0  0  0  0  0  0  0  0  0  0
    7.3841    1.7106   -6.4115 C   0  0  0  0  0  0  0  0  0  0  0  0
    6.6320    0.7067   -5.8355 C   0  0  0  0  0  0  0  0  0  0  0  0
    6.2437    0.8090   -4.5096 C   0  0  0  0  0  0  0  0  0  0  0  0
    5.5244    0.0173   -3.6811 O   0  0  0  0  0  0  0  0  0  0  0  0
    3.0819   -1.0195   -1.7791 H   0  0  0  0  0  0  0  0  0  0  0  0
    4.6199   -1.8122   -2.1969 H   0  0  0  0  0  0  0  0  0  0  0  0
    4.1285   -1.6656   -0.4924 H   0  0  0  0  0  0  0  0  0  0  0  0
    5.7116    1.4485   -0.0445 H   0  0  0  0  0  0  0  0  0  0  0  0
    4.7412    0.1644    0.7156 H   0  0  0  0  0  0  0  0  0  0  0  0
    3.5946    2.4311   -0.9745 H   0  0  0  0  0  0  0  0  0  0  0  0
    3.6292    2.4155    0.8050 H   0  0  0  0  0  0  0  0  0  0  0  0
    0.0037   -0.0703   -0.0360 H   0  0  0  0  0  0  0  0  0  0  0  0
   -2.1232    1.1680    0.0045 H   0  0  0  0  0  0  0  0  0  0  0  0
    0.0164    4.8578    0.0050 H   0  0  0  0  0  0  0  0  0  0  0  0
    2.1474    3.6270   -0.0466 H   0  0  0  0  0  0  0  0  0  0  0  0
   -3.2364    3.2513    0.5668 H   0  0  0  0  0  0  0  0  0  0  0  0
   -2.3435    4.7911    0.5629 H   0  0  0  0  0  0  0  0  0  0  0  0
   -3.5042    2.0647   -1.5184 H   0  0  0  0  0  0  0  0  0  0  0  0
   -2.8224    4.8338   -3.7213 H   0  0  0  0  0  0  0  0  0  0  0  0
   -2.7040    4.6589   -6.1668 H   0  0  0  0  0  0  0  0  0  0  0  0
   -3.0228    2.4876   -7.2777 H   0  0  0  0  0  0  0  0  0  0  0  0
   -3.4532    0.4680   -5.9521 H   0  0  0  0  0  0  0  0  0  0  0  0
   -1.6218   -1.2588   -4.6891 H   0  0  0  0  0  0  0  0  0  0  0  0
   -0.9091   -2.9140   -3.2873 H   0  0  0  0  0  0  0  0  0  0  0  0
   -2.2155   -3.4011   -1.2548 H   0  0  0  0  0  0  0  0  0  0  0  0
   -3.1134   -4.2182   -2.5517 H   0  0  0  0  0  0  0  0  0  0  0  0
   -4.9262   -3.1734   -5.0367 H   0  0  0  0  0  0  0  0  0  0  0  0
   -5.8713   -5.0865   -3.8692 H   0  0  0  0  0  0  0  0  0  0  0  0
   -6.4979   -4.7646   -1.3811 H   0  0  0  0  0  0  0  0  0  0  0  0
   -5.1602   -3.2347   -0.0674 H   0  0  0  0  0  0  0  0  0  0  0  0
    7.6689    3.8092   -3.7805 H   0  0  0  0  0  0  0  0  0  0  0  0
    8.3439    3.6023   -6.1336 H   0  0  0  0  0  0  0  0  0  0  0  0
    7.6854    1.6289   -7.4454 H   0  0  0  0  0  0  0  0  0  0  0  0
    6.3464   -0.1570   -6.4176 H   0  0  0  0  0  0  0  0  0  0  0  0
   -4.1474    6.1905   -0.7989 O   0  5  0  0  0  0  0  0  0  0  0  0
  1  2  1  0  0  0  0
  1 48  1  0  0  0  0
  1 49  1  0  0  0  0
  1 50  1  0  0  0  0
  2  3  1  0  0  0  0
  2 39  1  0  0  0  0
  3  4  1  0  0  0  0
  3 51  1  0  0  0  0
  3 52  1  0  0  0  0
  4  5  1  0  0  0  0
  4 53  1  0  0  0  0
  4 54  1  0  0  0  0
  5  6  1  0  0  0  0
  6 11  2  0  0  0  0
  6  7  1  0  0  0  0
  7  8  2  0  0  0  0
  7 55  1  0  0  0  0
  8  9  1  0  0  0  0
  8 56  1  0  0  0  0
  9 10  2  0  0  0  0
  9 12  1  0  0  0  0
 10 11  1  0  0  0  0
 10 57  1  0  0  0  0
 11 58  1  0  0  0  0
 12 13  1  0  0  0  0
 12 59  1  0  0  0  0
 12 60  1  0  0  0  0
 13 14  1  0  0  0  0
 13 15  1  0  0  0  0
 13 17  1  0  0  0  0
 15 16  2  0  0  0  0
 15 78  1  0  0  0  0
 17 18  1  0  0  0  0
 17 61  1  0  0  0  0
 18 23  2  0  0  0  0
 18 19  1  0  0  0  0
 19 20  2  0  0  0  0
 19 62  1  0  0  0  0
 20 21  1  0  0  0  0
 20 63  1  0  0  0  0
 21 22  2  0  0  0  0
 21 64  1  0  0  0  0
 22 23  1  0  0  0  0
 22 65  1  0  0  0  0
 23 24  1  0  0  0  0
 24 25  2  0  0  0  0
 24 26  1  0  0  0  0
 26 27  1  0  0  0  0
 26 33  1  0  0  0  0
 26 28  1  0  0  0  0
 28 29  2  0  0  0  0
 28 66  1  0  0  0  0
 29 30  1  0  0  0  0
 29 67  1  0  0  0  0
 30 31  1  0  0  0  0
 30 68  1  0  0  0  0
 30 69  1  0  0  0  0
 31 32  1  0  0  0  0
 31 38  1  0  0  0  0
 31 33  1  0  0  0  0
 33 34  1  0  0  0  0
 33 35  1  0  0  0  0
 35 36  2  0  0  0  0
 35 70  1  0  0  0  0
 36 37  1  0  0  0  0
 36 71  1  0  0  0  0
 37 38  2  0  0  0  0
 37 72  1  0  0  0  0
 38 73  1  0  0  0  0
 39 47  1  0  0  0  0
 39 40  2  0  0  0  0
 40 41  1  0  0  0  0
 41 46  2  0  0  0  0
 41 42  1  0  0  0  0
 42 43  2  0  0  0  0
 42 74  1  0  0  0  0
 43 44  1  0  0  0  0
 43 75  1  0  0  0  0
 44 45  2  0  0  0  0
 44 76  1  0  0  0  0
 45 46  1  0  0  0  0
 45 77  1  0  0  0  0
 46 47  1  0  0  0  0
M  CHG  1  78  -1
M  END
$$$$
