ZINC04137624
  -OEChem-08230709403D

 72 75  0     1  0  0  0  0  0999 V2000
    0.1374   13.3735    4.1961 C   0  0  0  0  0  0  0  0  0  0  0  0
   -0.0246   11.8560    4.0869 C   0  0  0  0  0  0  0  0  0  0  0  0
   -0.2152   11.4851    2.6825 N   0  0  3  0  0  0  0  0  0  0  0  0
    0.9446   11.1756    1.8427 C   0  0  0  0  0  0  0  0  0  0  0  0
    1.2527    9.6795    1.9300 C   0  0  0  0  0  0  0  0  0  0  0  0
    0.1695    8.9364    1.3674 O   0  0  0  0  0  0  0  0  0  0  0  0
    0.2850    7.5823    1.3664 C   0  0  0  0  0  0  0  0  0  0  0  0
   -0.7295    6.7988    0.8357 C   0  0  0  0  0  0  0  0  0  0  0  0
   -0.6099    5.4226    0.8363 C   0  0  0  0  0  0  0  0  0  0  0  0
    0.5200    4.8259    1.3647 C   0  0  0  0  0  0  0  0  0  0  0  0
    1.5299    5.6043    1.8992 C   0  0  0  0  0  0  0  0  0  0  0  0
    1.4174    6.9811    1.8964 C   0  0  0  0  0  0  0  0  0  0  0  0
    0.6480    3.3243    1.3635 C   0  0  0  0  0  0  0  0  0  0  0  0
    1.3258    2.8713    0.0688 C   0  0  2  0  0  0  0  0  0  0  0  0
    0.7733    3.2610   -0.7862 H   0  0  0  0  0  0  0  0  0  0  0  0
    1.3435    1.3655    0.0113 C   0  0  0  0  0  0  0  0  0  0  0  0
    2.3962    0.7757   -0.0521 O   0  0  0  0  0  0  0  0  0  0  0  0
    2.7001    3.3775    0.0340 N   0  0  0  0  0  0  0  0  0  0  0  0
    3.3404    3.5642   -1.1834 C   0  0  0  0  0  0  0  0  0  0  0  0
    2.7253    3.1670   -2.3643 C   0  0  0  0  0  0  0  0  0  0  0  0
    3.3636    3.3540   -3.5730 C   0  0  0  0  0  0  0  0  0  0  0  0
    4.6203    3.9380   -3.6210 C   0  0  0  0  0  0  0  0  0  0  0  0
    5.2464    4.3388   -2.4620 C   0  0  0  0  0  0  0  0  0  0  0  0
    4.6113    4.1610   -1.2288 C   0  0  0  0  0  0  0  0  0  0  0  0
    5.2729    4.5921    0.0149 C   0  0  0  0  0  0  0  0  0  0  0  0
    5.3189    5.7730    0.3013 O   0  0  0  0  0  0  0  0  0  0  0  0
    5.8808    3.5892    0.9145 C   0  0  0  0  0  0  0  0  0  0  0  0
    5.9263    2.2452    0.5379 C   0  0  0  0  0  0  0  0  0  0  0  0
    6.4993    1.3153    1.3802 C   0  0  0  0  0  0  0  0  0  0  0  0
    7.0193    1.7100    2.6004 C   0  0  0  0  0  0  0  0  0  0  0  0
    6.9723    3.0392    2.9824 C   0  0  0  0  0  0  0  0  0  0  0  0
    6.4069    3.9804    2.1475 C   0  0  0  0  0  0  0  0  0  0  0  0
   -1.5028   11.4265    2.1442 C   0  0  0  0  0  0  0  0  0  0  0  0
   -1.6850   11.0805    0.8111 C   0  0  0  0  0  0  0  0  0  0  0  0
   -2.9595   11.0194    0.2833 C   0  0  0  0  0  0  0  0  0  0  0  0
   -4.0533   11.3119    1.0776 C   0  0  0  0  0  0  0  0  0  0  0  0
   -3.8752   11.6613    2.4034 C   0  0  0  0  0  0  0  0  0  0  0  0
   -2.6034   11.7197    2.9390 C   0  0  0  0  0  0  0  0  0  0  0  0
   -5.0701   11.9792    3.2650 C   0  0  0  0  0  0  0  0  0  0  0  0
    1.0046   13.6890    3.6160 H   0  0  0  0  0  0  0  0  0  0  0  0
   -0.7563   13.8631    3.8091 H   0  0  0  0  0  0  0  0  0  0  0  0
    0.2793   13.6495    5.2410 H   0  0  0  0  0  0  0  0  0  0  0  0
   -0.8918   11.5405    4.6670 H   0  0  0  0  0  0  0  0  0  0  0  0
    0.8691   11.3665    4.4739 H   0  0  0  0  0  0  0  0  0  0  0  0
    1.8068   11.7450    2.1897 H   0  0  0  0  0  0  0  0  0  0  0  0
    0.7257   11.4417    0.8086 H   0  0  0  0  0  0  0  0  0  0  0  0
    1.3842    9.3959    2.9742 H   0  0  0  0  0  0  0  0  0  0  0  0
    2.1670    9.4639    1.3771 H   0  0  0  0  0  0  0  0  0  0  0  0
   -1.6122    7.2644    0.4229 H   0  0  0  0  0  0  0  0  0  0  0  0
   -1.3994    4.8122    0.4233 H   0  0  0  0  0  0  0  0  0  0  0  0
    2.4093    5.1356    2.3157 H   0  0  0  0  0  0  0  0  0  0  0  0
    2.2088    7.5889    2.3097 H   0  0  0  0  0  0  0  0  0  0  0  0
   -0.3428    2.8751    1.4314 H   0  0  0  0  0  0  0  0  0  0  0  0
    1.2486    3.0102    2.2172 H   0  0  0  0  0  0  0  0  0  0  0  0
    3.1626    3.5823    0.8617 H   0  0  0  0  0  0  0  0  0  0  0  0
    1.7467    2.7110   -2.3360 H   0  0  0  0  0  0  0  0  0  0  0  0
    2.8810    3.0438   -4.4880 H   0  0  0  0  0  0  0  0  0  0  0  0
    5.1107    4.0795   -4.5728 H   0  0  0  0  0  0  0  0  0  0  0  0
    6.2253    4.7931   -2.5056 H   0  0  0  0  0  0  0  0  0  0  0  0
    5.5175    1.9353   -0.4125 H   0  0  0  0  0  0  0  0  0  0  0  0
    6.5386    0.2762    1.0886 H   0  0  0  0  0  0  0  0  0  0  0  0
    7.4634    0.9772    3.2578 H   0  0  0  0  0  0  0  0  0  0  0  0
    7.3796    3.3404    3.9362 H   0  0  0  0  0  0  0  0  0  0  0  0
    6.3709    5.0175    2.4468 H   0  0  0  0  0  0  0  0  0  0  0  0
   -0.8310   10.8563    0.1892 H   0  0  0  0  0  0  0  0  0  0  0  0
   -3.1021   10.7472   -0.7520 H   0  0  0  0  0  0  0  0  0  0  0  0
   -5.0488   11.2677    0.6611 H   0  0  0  0  0  0  0  0  0  0  0  0
   -2.4650   11.9927    3.9748 H   0  0  0  0  0  0  0  0  0  0  0  0
   -5.2898   13.0450    3.2026 H   0  0  0  0  0  0  0  0  0  0  0  0
   -5.9315   11.4096    2.9162 H   0  0  0  0  0  0  0  0  0  0  0  0
   -4.8532   11.7129    4.2995 H   0  0  0  0  0  0  0  0  0  0  0  0
    0.1900    0.6795    0.0307 O   0  5  0  0  0  0  0  0  0  0  0  0
  1  2  1  0  0  0  0
  1 40  1  0  0  0  0
  1 41  1  0  0  0  0
  1 42  1  0  0  0  0
  2  3  1  0  0  0  0
  2 43  1  0  0  0  0
  2 44  1  0  0  0  0
  3  4  1  0  0  0  0
  3 33  1  0  0  0  0
  4  5  1  0  0  0  0
  4 45  1  0  0  0  0
  4 46  1  0  0  0  0
  5  6  1  0  0  0  0
  5 47  1  0  0  0  0
  5 48  1  0  0  0  0
  6  7  1  0  0  0  0
  7 12  2  0  0  0  0
  7  8  1  0  0  0  0
  8  9  2  0  0  0  0
  8 49  1  0  0  0  0
  9 10  1  0  0  0  0
  9 50  1  0  0  0  0
 10 11  2  0  0  0  0
 10 13  1  0  0  0  0
 11 12  1  0  0  0  0
 11 51  1  0  0  0  0
 12 52  1  0  0  0  0
 13 14  1  0  0  0  0
 13 53  1  0  0  0  0
 13 54  1  0  0  0  0
 14 15  1  0  0  0  0
 14 16  1  0  0  0  0
 14 18  1  0  0  0  0
 16 17  2  0  0  0  0
 16 72  1  0  0  0  0
 18 19  1  0  0  0  0
 18 55  1  0  0  0  0
 19 24  2  0  0  0  0
 19 20  1  0  0  0  0
 20 21  2  0  0  0  0
 20 56  1  0  0  0  0
 21 22  1  0  0  0  0
 21 57  1  0  0  0  0
 22 23  2  0  0  0  0
 22 58  1  0  0  0  0
 23 24  1  0  0  0  0
 23 59  1  0  0  0  0
 24 25  1  0  0  0  0
 25 26  2  0  0  0  0
 25 27  1  0  0  0  0
 27 32  2  0  0  0  0
 27 28  1  0  0  0  0
 28 29  2  0  0  0  0
 28 60  1  0  0  0  0
 29 30  1  0  0  0  0
 29 61  1  0  0  0  0
 30 31  2  0  0  0  0
 30 62  1  0  0  0  0
 31 32  1  0  0  0  0
 31 63  1  0  0  0  0
 32 64  1  0  0  0  0
 33 38  2  0  0  0  0
 33 34  1  0  0  0  0
 34 35  2  0  0  0  0
 34 65  1  0  0  0  0
 35 36  1  0  0  0  0
 35 66  1  0  0  0  0
 36 37  2  0  0  0  0
 36 67  1  0  0  0  0
 37 38  1  0  0  0  0
 37 39  1  0  0  0  0
 38 68  1  0  0  0  0
 39 69  1  0  0  0  0
 39 70  1  0  0  0  0
 39 71  1  0  0  0  0
M  CHG  1  72  -1
M  END
$$$$
