ZINC04137602
  -OEChem-08230709403D

 70 73  0     1  0  0  0  0  0999 V2000
   -1.1421   -1.0430    0.0728 C   0  0  0  0  0  0  0  0  0  0  0  0
    0.0613   -0.1359    0.0616 C   0  0  0  0  0  0  0  0  0  0  0  0
    0.0461    1.2094    0.0463 C   0  0  0  0  0  0  0  0  0  0  0  0
    1.3185    1.6347    0.0402 N   0  0  0  0  0  0  0  0  0  0  0  0
    2.1106    0.5886    0.0513 C   0  0  0  0  0  0  0  0  0  0  0  0
    1.3527   -0.5215    0.0648 O   0  0  0  0  0  0  0  0  0  0  0  0
    3.5884    0.6249    0.0499 C   0  0  0  0  0  0  0  0  0  0  0  0
    4.2595    1.8486    0.0300 C   0  0  0  0  0  0  0  0  0  0  0  0
    5.6388    1.8755    0.0346 C   0  0  0  0  0  0  0  0  0  0  0  0
    6.3568    0.6929    0.0473 C   0  0  0  0  0  0  0  0  0  0  0  0
    5.6977   -0.5235    0.0613 C   0  0  0  0  0  0  0  0  0  0  0  0
    4.3187   -0.5644    0.0627 C   0  0  0  0  0  0  0  0  0  0  0  0
   -1.1818    2.0830    0.0320 C   0  0  0  0  0  0  0  0  0  0  0  0
   -1.6025    2.3950    1.4695 C   0  0  0  0  0  0  0  0  0  0  0  0
   -2.7668    3.2233    1.4559 O   0  0  0  0  0  0  0  0  0  0  0  0
   -3.2739    3.5948    2.6608 C   0  0  0  0  0  0  0  0  0  0  0  0
   -2.6667    3.1660    3.8322 C   0  0  0  0  0  0  0  0  0  0  0  0
   -3.1809    3.5493    5.0557 C   0  0  0  0  0  0  0  0  0  0  0  0
   -4.3060    4.3509    5.1136 C   0  0  0  0  0  0  0  0  0  0  0  0
   -4.9164    4.7749    3.9477 C   0  0  0  0  0  0  0  0  0  0  0  0
   -4.4029    4.3987    2.7216 C   0  0  0  0  0  0  0  0  0  0  0  0
   -4.8682    4.7628    6.4498 C   0  0  0  0  0  0  0  0  0  0  0  0
   -5.8948    3.7269    6.9123 C   0  0  2  0  0  0  0  0  0  0  0  0
   -6.6549    3.5993    6.1416 H   0  0  0  0  0  0  0  0  0  0  0  0
   -6.5459    4.1992    8.1867 C   0  0  0  0  0  0  0  0  0  0  0  0
   -6.4579    3.5351    9.1922 O   0  0  0  0  0  0  0  0  0  0  0  0
   -5.2232    2.4472    7.1523 N   0  0  0  0  0  0  0  0  0  0  0  0
   -5.9396    1.2609    7.0692 C   0  0  0  0  0  0  0  0  0  0  0  0
   -7.3151    1.2878    6.8739 C   0  0  0  0  0  0  0  0  0  0  0  0
   -8.0248    0.1076    6.7922 C   0  0  0  0  0  0  0  0  0  0  0  0
   -7.3748   -1.1118    6.9032 C   0  0  0  0  0  0  0  0  0  0  0  0
   -6.0120   -1.1592    7.0961 C   0  0  0  0  0  0  0  0  0  0  0  0
   -5.2773    0.0275    7.1763 C   0  0  0  0  0  0  0  0  0  0  0  0
   -3.8188   -0.0158    7.3769 C   0  0  0  0  0  0  0  0  0  0  0  0
   -3.1989    1.0144    7.5532 O   0  0  0  0  0  0  0  0  0  0  0  0
   -3.1718   -1.1979    7.3650 O   0  0  0  0  0  0  0  0  0  0  0  0
   -1.7346   -1.1649    7.5692 C   0  0  0  0  0  0  0  0  0  0  0  0
   -1.4292   -1.2767    9.0643 C   0  0  0  0  0  0  0  0  0  0  0  0
   -1.0870   -2.3358    6.8274 C   0  0  0  0  0  0  0  0  0  0  0  0
   -1.4328   -1.2734   -0.9522 H   0  0  0  0  0  0  0  0  0  0  0  0
   -0.8961   -1.9665    0.5970 H   0  0  0  0  0  0  0  0  0  0  0  0
   -1.9676   -0.5452    0.5815 H   0  0  0  0  0  0  0  0  0  0  0  0
    3.7001    2.7724    0.0155 H   0  0  0  0  0  0  0  0  0  0  0  0
    6.1593    2.8218    0.0237 H   0  0  0  0  0  0  0  0  0  0  0  0
    7.4365    0.7194    0.0466 H   0  0  0  0  0  0  0  0  0  0  0  0
    6.2641   -1.4431    0.0716 H   0  0  0  0  0  0  0  0  0  0  0  0
    3.8055   -1.5145    0.0740 H   0  0  0  0  0  0  0  0  0  0  0  0
   -0.9600    3.0129   -0.4917 H   0  0  0  0  0  0  0  0  0  0  0  0
   -1.9919    1.5626   -0.4789 H   0  0  0  0  0  0  0  0  0  0  0  0
   -1.8243    1.4651    1.9931 H   0  0  0  0  0  0  0  0  0  0  0  0
   -0.7923    2.9153    1.9804 H   0  0  0  0  0  0  0  0  0  0  0  0
   -1.7903    2.5364    3.7875 H   0  0  0  0  0  0  0  0  0  0  0  0
   -2.7060    3.2194    5.9679 H   0  0  0  0  0  0  0  0  0  0  0  0
   -5.7950    5.4010    3.9955 H   0  0  0  0  0  0  0  0  0  0  0  0
   -4.8802    4.7298    1.8112 H   0  0  0  0  0  0  0  0  0  0  0  0
   -4.0612    4.8257    7.1798 H   0  0  0  0  0  0  0  0  0  0  0  0
   -5.3506    5.7358    6.3566 H   0  0  0  0  0  0  0  0  0  0  0  0
   -4.2779    2.4288    7.3693 H   0  0  0  0  0  0  0  0  0  0  0  0
   -7.8292    2.2335    6.7864 H   0  0  0  0  0  0  0  0  0  0  0  0
   -9.0937    0.1339    6.6403 H   0  0  0  0  0  0  0  0  0  0  0  0
   -7.9402   -2.0296    6.8377 H   0  0  0  0  0  0  0  0  0  0  0  0
   -5.5109   -2.1121    7.1816 H   0  0  0  0  0  0  0  0  0  0  0  0
   -1.3347   -0.2261    7.1860 H   0  0  0  0  0  0  0  0  0  0  0  0
   -1.8292   -2.2155    9.4476 H   0  0  0  0  0  0  0  0  0  0  0  0
   -0.3504   -1.2519    9.2176 H   0  0  0  0  0  0  0  0  0  0  0  0
   -1.8906   -0.4425    9.5928 H   0  0  0  0  0  0  0  0  0  0  0  0
   -1.3045   -2.2561    5.7623 H   0  0  0  0  0  0  0  0  0  0  0  0
   -0.0081   -2.3110    6.9807 H   0  0  0  0  0  0  0  0  0  0  0  0
   -1.4869   -3.2746    7.2107 H   0  0  0  0  0  0  0  0  0  0  0  0
   -7.2235    5.3578    8.2047 O   0  5  0  0  0  0  0  0  0  0  0  0
  1  2  1  0  0  0  0
  1 40  1  0  0  0  0
  1 41  1  0  0  0  0
  1 42  1  0  0  0  0
  2  6  1  0  0  0  0
  2  3  2  0  0  0  0
  3  4  1  0  0  0  0
  3 13  1  0  0  0  0
  4  5  2  0  0  0  0
  5  6  1  0  0  0  0
  5  7  1  0  0  0  0
  7 12  2  0  0  0  0
  7  8  1  0  0  0  0
  8  9  2  0  0  0  0
  8 43  1  0  0  0  0
  9 10  1  0  0  0  0
  9 44  1  0  0  0  0
 10 11  2  0  0  0  0
 10 45  1  0  0  0  0
 11 12  1  0  0  0  0
 11 46  1  0  0  0  0
 12 47  1  0  0  0  0
 13 14  1  0  0  0  0
 13 48  1  0  0  0  0
 13 49  1  0  0  0  0
 14 15  1  0  0  0  0
 14 50  1  0  0  0  0
 14 51  1  0  0  0  0
 15 16  1  0  0  0  0
 16 21  2  0  0  0  0
 16 17  1  0  0  0  0
 17 18  2  0  0  0  0
 17 52  1  0  0  0  0
 18 19  1  0  0  0  0
 18 53  1  0  0  0  0
 19 20  2  0  0  0  0
 19 22  1  0  0  0  0
 20 21  1  0  0  0  0
 20 54  1  0  0  0  0
 21 55  1  0  0  0  0
 22 23  1  0  0  0  0
 22 56  1  0  0  0  0
 22 57  1  0  0  0  0
 23 24  1  0  0  0  0
 23 25  1  0  0  0  0
 23 27  1  0  0  0  0
 25 26  2  0  0  0  0
 25 70  1  0  0  0  0
 27 28  1  0  0  0  0
 27 58  1  0  0  0  0
 28 33  2  0  0  0  0
 28 29  1  0  0  0  0
 29 30  2  0  0  0  0
 29 59  1  0  0  0  0
 30 31  1  0  0  0  0
 30 60  1  0  0  0  0
 31 32  2  0  0  0  0
 31 61  1  0  0  0  0
 32 33  1  0  0  0  0
 32 62  1  0  0  0  0
 33 34  1  0  0  0  0
 34 35  2  0  0  0  0
 34 36  1  0  0  0  0
 36 37  1  0  0  0  0
 37 38  1  0  0  0  0
 37 39  1  0  0  0  0
 37 63  1  0  0  0  0
 38 64  1  0  0  0  0
 38 65  1  0  0  0  0
 38 66  1  0  0  0  0
 39 67  1  0  0  0  0
 39 68  1  0  0  0  0
 39 69  1  0  0  0  0
M  CHG  1  70  -1
M  END
$$$$
