ZINC03834057
  -OEChem-08230709403D

 69 73  0     1  0  0  0  0  0999 V2000
    4.2881   -0.1925    8.4491 C   0  0  0  0  0  0  0  0  0  0  0  0
    2.8823    0.1270    8.1885 N   0  0  0  0  0  0  0  0  0  0  0  0
    2.1612   -0.5625    7.1157 C   0  0  0  0  0  0  0  0  0  0  0  0
    2.3156    0.2221    5.8113 C   0  0  0  0  0  0  0  0  0  0  0  0
    3.6872    0.2146    5.4104 O   0  0  0  0  0  0  0  0  0  0  0  0
    3.9980    0.8723    4.2624 C   0  0  0  0  0  0  0  0  0  0  0  0
    3.0025    1.5068    3.5338 C   0  0  0  0  0  0  0  0  0  0  0  0
    3.3221    2.1799    2.3705 C   0  0  0  0  0  0  0  0  0  0  0  0
    4.6309    2.2110    1.9257 C   0  0  0  0  0  0  0  0  0  0  0  0
    5.6240    1.5746    2.6471 C   0  0  0  0  0  0  0  0  0  0  0  0
    5.3106    0.9054    3.8142 C   0  0  0  0  0  0  0  0  0  0  0  0
    4.9756    2.9403    0.6527 C   0  0  0  0  0  0  0  0  0  0  0  0
    5.2852    4.4043    0.9716 C   0  0  1  0  0  0  0  0  0  0  0  0
    6.0592    4.4535    1.7375 H   0  0  0  0  0  0  0  0  0  0  0  0
    5.7754    5.1094   -0.2947 C   0  0  0  0  0  0  0  0  0  0  0  0
    6.1964    6.5161    0.0446 C   0  0  0  0  0  0  0  0  0  0  0  0
    5.3450    7.5721   -0.2061 C   0  0  0  0  0  0  0  0  0  0  0  0
    5.7298    8.8642    0.1053 C   0  0  0  0  0  0  0  0  0  0  0  0
    6.9699    9.1068    0.6701 C   0  0  0  0  0  0  0  0  0  0  0  0
    7.8312    8.0607    0.9261 C   0  0  0  0  0  0  0  0  0  0  0  0
    7.4473    6.7530    0.6188 C   0  0  0  0  0  0  0  0  0  0  0  0
    8.3621    5.6265    0.8958 C   0  0  0  0  0  0  0  0  0  0  0  0
    8.5240    5.2416    2.0374 O   0  0  0  0  0  0  0  0  0  0  0  0
    9.0802    4.9677   -0.2147 C   0  0  0  0  0  0  0  0  0  0  0  0
    8.9811    5.4742   -1.5127 C   0  0  0  0  0  0  0  0  0  0  0  0
    9.6588    4.8576   -2.5436 C   0  0  0  0  0  0  0  0  0  0  0  0
   10.4268    3.7332   -2.2963 C   0  0  0  0  0  0  0  0  0  0  0  0
   10.5245    3.2223   -1.0138 C   0  0  0  0  0  0  0  0  0  0  0  0
    9.8568    3.8322    0.0276 C   0  0  0  0  0  0  0  0  0  0  0  0
    4.0374    5.0838    1.4739 C   0  0  0  0  0  0  0  0  0  0  0  0
    3.0868    5.2201    0.7406 O   0  0  0  0  0  0  0  0  0  0  0  0
    2.2390    1.0749    8.9516 C   0  0  0  0  0  0  0  0  0  0  0  0
    0.9913    1.4388    8.8001 N   0  0  0  0  0  0  0  0  0  0  0  0
    0.6984    2.3904    9.7287 C   0  0  0  0  0  0  0  0  0  0  0  0
   -0.4520    3.1204   10.0306 C   0  0  0  0  0  0  0  0  0  0  0  0
   -0.4274    4.0417   11.0546 C   0  0  0  0  0  0  0  0  0  0  0  0
    0.7325    4.2470   11.7857 C   0  0  0  0  0  0  0  0  0  0  0  0
    1.8772    3.5316   11.4974 C   0  0  0  0  0  0  0  0  0  0  0  0
    1.8700    2.6013   10.4709 C   0  0  0  0  0  0  0  0  0  0  0  0
    2.8026    1.7661    9.9578 O   0  0  0  0  0  0  0  0  0  0  0  0
    4.9256    0.4583    7.8505 H   0  0  0  0  0  0  0  0  0  0  0  0
    4.5051   -0.0410    9.5065 H   0  0  0  0  0  0  0  0  0  0  0  0
    4.4796   -1.2323    8.1842 H   0  0  0  0  0  0  0  0  0  0  0  0
    1.1048   -0.6326    7.3747 H   0  0  0  0  0  0  0  0  0  0  0  0
    2.5712   -1.5643    6.9878 H   0  0  0  0  0  0  0  0  0  0  0  0
    1.9875    1.2502    5.9646 H   0  0  0  0  0  0  0  0  0  0  0  0
    1.7075   -0.2413    5.0344 H   0  0  0  0  0  0  0  0  0  0  0  0
    1.9793    1.4786    3.8782 H   0  0  0  0  0  0  0  0  0  0  0  0
    2.5482    2.6784    1.8056 H   0  0  0  0  0  0  0  0  0  0  0  0
    6.6455    1.6003    2.2976 H   0  0  0  0  0  0  0  0  0  0  0  0
    6.0867    0.4087    4.3776 H   0  0  0  0  0  0  0  0  0  0  0  0
    5.8481    2.4762    0.1930 H   0  0  0  0  0  0  0  0  0  0  0  0
    4.1318    2.8889   -0.0353 H   0  0  0  0  0  0  0  0  0  0  0  0
    6.6249    4.5655   -0.7078 H   0  0  0  0  0  0  0  0  0  0  0  0
    4.9705    5.1382   -1.0292 H   0  0  0  0  0  0  0  0  0  0  0  0
    4.3759    7.3899   -0.6466 H   0  0  0  0  0  0  0  0  0  0  0  0
    5.0593    9.6872   -0.0931 H   0  0  0  0  0  0  0  0  0  0  0  0
    7.2636   10.1177    0.9113 H   0  0  0  0  0  0  0  0  0  0  0  0
    8.7986    8.2514    1.3666 H   0  0  0  0  0  0  0  0  0  0  0  0
    8.3789    6.3492   -1.7078 H   0  0  0  0  0  0  0  0  0  0  0  0
    9.5864    5.2505   -3.5470 H   0  0  0  0  0  0  0  0  0  0  0  0
   10.9520    3.2519   -3.1080 H   0  0  0  0  0  0  0  0  0  0  0  0
   11.1253    2.3443   -0.8280 H   0  0  0  0  0  0  0  0  0  0  0  0
    9.9339    3.4325    1.0279 H   0  0  0  0  0  0  0  0  0  0  0  0
   -1.3579    2.9636    9.4640 H   0  0  0  0  0  0  0  0  0  0  0  0
   -1.3172    4.6071   11.2895 H   0  0  0  0  0  0  0  0  0  0  0  0
    0.7406    4.9720   12.5861 H   0  0  0  0  0  0  0  0  0  0  0  0
    2.7773    3.6971   12.0709 H   0  0  0  0  0  0  0  0  0  0  0  0
    3.9820    5.5376    2.7359 O   0  5  0  0  0  0  0  0  0  0  0  0
  1  2  1  0  0  0  0
  1 41  1  0  0  0  0
  1 42  1  0  0  0  0
  1 43  1  0  0  0  0
  2  3  1  0  0  0  0
  2 32  1  0  0  0  0
  3  4  1  0  0  0  0
  3 44  1  0  0  0  0
  3 45  1  0  0  0  0
  4  5  1  0  0  0  0
  4 46  1  0  0  0  0
  4 47  1  0  0  0  0
  5  6  1  0  0  0  0
  6 11  2  0  0  0  0
  6  7  1  0  0  0  0
  7  8  2  0  0  0  0
  7 48  1  0  0  0  0
  8  9  1  0  0  0  0
  8 49  1  0  0  0  0
  9 10  2  0  0  0  0
  9 12  1  0  0  0  0
 10 11  1  0  0  0  0
 10 50  1  0  0  0  0
 11 51  1  0  0  0  0
 12 13  1  0  0  0  0
 12 52  1  0  0  0  0
 12 53  1  0  0  0  0
 13 14  1  0  0  0  0
 13 15  1  0  0  0  0
 13 30  1  0  0  0  0
 15 16  1  0  0  0  0
 15 54  1  0  0  0  0
 15 55  1  0  0  0  0
 16 21  2  0  0  0  0
 16 17  1  0  0  0  0
 17 18  2  0  0  0  0
 17 56  1  0  0  0  0
 18 19  1  0  0  0  0
 18 57  1  0  0  0  0
 19 20  2  0  0  0  0
 19 58  1  0  0  0  0
 20 21  1  0  0  0  0
 20 59  1  0  0  0  0
 21 22  1  0  0  0  0
 22 23  2  0  0  0  0
 22 24  1  0  0  0  0
 24 29  2  0  0  0  0
 24 25  1  0  0  0  0
 25 26  2  0  0  0  0
 25 60  1  0  0  0  0
 26 27  1  0  0  0  0
 26 61  1  0  0  0  0
 27 28  2  0  0  0  0
 27 62  1  0  0  0  0
 28 29  1  0  0  0  0
 28 63  1  0  0  0  0
 29 64  1  0  0  0  0
 30 31  2  0  0  0  0
 30 69  1  0  0  0  0
 32 40  1  0  0  0  0
 32 33  2  0  0  0  0
 33 34  1  0  0  0  0
 34 39  2  0  0  0  0
 34 35  1  0  0  0  0
 35 36  2  0  0  0  0
 35 65  1  0  0  0  0
 36 37  1  0  0  0  0
 36 66  1  0  0  0  0
 37 38  2  0  0  0  0
 37 67  1  0  0  0  0
 38 39  1  0  0  0  0
 38 68  1  0  0  0  0
 39 40  1  0  0  0  0
M  CHG  1  69  -1
M  END
$$$$
