ZINC03834059
  -OEChem-08230709403D

 67 71  0     1  0  0  0  0  0999 V2000
   -2.7409    3.3626    1.7170 C   0  0  0  0  0  0  0  0  0  0  0  0
   -1.2893    3.5431    1.7980 N   0  0  0  0  0  0  0  0  0  0  0  0
   -0.4599    3.3534    0.6054 C   0  0  0  0  0  0  0  0  0  0  0  0
   -0.0160    1.8917    0.5201 C   0  0  0  0  0  0  0  0  0  0  0  0
   -1.1593    1.0575    0.3221 O   0  0  0  0  0  0  0  0  0  0  0  0
   -0.9377   -0.2798    0.2244 C   0  0  0  0  0  0  0  0  0  0  0  0
    0.3540   -0.7783    0.3114 C   0  0  0  0  0  0  0  0  0  0  0  0
    0.5760   -2.1385    0.2171 C   0  0  0  0  0  0  0  0  0  0  0  0
   -0.4868   -3.0020    0.0255 C   0  0  0  0  0  0  0  0  0  0  0  0
   -1.7745   -2.5071   -0.0672 C   0  0  0  0  0  0  0  0  0  0  0  0
   -2.0023   -1.1482    0.0318 C   0  0  0  0  0  0  0  0  0  0  0  0
   -0.2411   -4.4849   -0.0828 C   0  0  0  0  0  0  0  0  0  0  0  0
   -0.0053   -4.8570   -1.5480 C   0  0  2  0  0  0  0  0  0  0  0  0
   -0.8448   -4.5104   -2.1506 H   0  0  0  0  0  0  0  0  0  0  0  0
    0.1183   -6.3538   -1.6725 C   0  0  0  0  0  0  0  0  0  0  0  0
   -0.5119   -6.9438   -2.5179 O   0  0  0  0  0  0  0  0  0  0  0  0
    1.5195   -4.0752   -2.1312 S   0  0  0  0  0  0  0  0  0  0  0  0
    1.3965   -4.4137   -3.8560 C   0  0  0  0  0  0  0  0  0  0  0  0
    0.2502   -5.0079   -4.3721 C   0  0  0  0  0  0  0  0  0  0  0  0
    0.1550   -5.2676   -5.7230 C   0  0  0  0  0  0  0  0  0  0  0  0
    1.2015   -4.9489   -6.5758 C   0  0  0  0  0  0  0  0  0  0  0  0
    2.3473   -4.3650   -6.0843 C   0  0  0  0  0  0  0  0  0  0  0  0
    2.4591   -4.0899   -4.7175 C   0  0  0  0  0  0  0  0  0  0  0  0
    3.6817   -3.4659   -4.1845 C   0  0  0  0  0  0  0  0  0  0  0  0
    3.7328   -3.1278   -3.0174 O   0  0  0  0  0  0  0  0  0  0  0  0
    4.8469   -3.2503   -5.0680 C   0  0  0  0  0  0  0  0  0  0  0  0
    5.1139   -4.1439   -6.1074 C   0  0  0  0  0  0  0  0  0  0  0  0
    6.2002   -3.9341   -6.9311 C   0  0  0  0  0  0  0  0  0  0  0  0
    7.0304   -2.8467   -6.7231 C   0  0  0  0  0  0  0  0  0  0  0  0
    6.7750   -1.9604   -5.6915 C   0  0  0  0  0  0  0  0  0  0  0  0
    5.6891   -2.1553   -4.8635 C   0  0  0  0  0  0  0  0  0  0  0  0
   -0.7047    3.8909    2.9947 C   0  0  0  0  0  0  0  0  0  0  0  0
    0.5784    4.0711    3.1779 N   0  0  0  0  0  0  0  0  0  0  0  0
    0.7901    4.4082    4.4799 C   0  0  0  0  0  0  0  0  0  0  0  0
    1.9315    4.7105    5.2236 C   0  0  0  0  0  0  0  0  0  0  0  0
    1.8143    5.0136    6.5624 C   0  0  0  0  0  0  0  0  0  0  0  0
    0.5700    5.0197    7.1738 C   0  0  0  0  0  0  0  0  0  0  0  0
   -0.5669    4.7226    6.4496 C   0  0  0  0  0  0  0  0  0  0  0  0
   -0.4670    4.4156    5.1024 C   0  0  0  0  0  0  0  0  0  0  0  0
   -1.3681    4.0896    4.1472 O   0  0  0  0  0  0  0  0  0  0  0  0
   -2.9904    2.3235    1.9320 H   0  0  0  0  0  0  0  0  0  0  0  0
   -3.2288    4.0113    2.4445 H   0  0  0  0  0  0  0  0  0  0  0  0
   -3.0835    3.6186    0.7145 H   0  0  0  0  0  0  0  0  0  0  0  0
    0.4178    3.9967    0.6672 H   0  0  0  0  0  0  0  0  0  0  0  0
   -1.0369    3.6103   -0.2830 H   0  0  0  0  0  0  0  0  0  0  0  0
    0.4839    1.6091    1.4466 H   0  0  0  0  0  0  0  0  0  0  0  0
    0.6723    1.7692   -0.3161 H   0  0  0  0  0  0  0  0  0  0  0  0
    1.1849   -0.1039    0.4569 H   0  0  0  0  0  0  0  0  0  0  0  0
    1.5809   -2.5275    0.2892 H   0  0  0  0  0  0  0  0  0  0  0  0
   -2.6030   -3.1836   -0.2169 H   0  0  0  0  0  0  0  0  0  0  0  0
   -3.0084   -0.7622   -0.0404 H   0  0  0  0  0  0  0  0  0  0  0  0
    0.6367   -4.7517    0.5057 H   0  0  0  0  0  0  0  0  0  0  0  0
   -1.1093   -5.0255    0.2941 H   0  0  0  0  0  0  0  0  0  0  0  0
   -0.5680   -5.2628   -3.7148 H   0  0  0  0  0  0  0  0  0  0  0  0
   -0.7393   -5.7255   -6.1193 H   0  0  0  0  0  0  0  0  0  0  0  0
    1.1172   -5.1605   -7.6315 H   0  0  0  0  0  0  0  0  0  0  0  0
    3.1586   -4.1192   -6.7534 H   0  0  0  0  0  0  0  0  0  0  0  0
    4.4689   -4.9951   -6.2685 H   0  0  0  0  0  0  0  0  0  0  0  0
    6.4055   -4.6221   -7.7379 H   0  0  0  0  0  0  0  0  0  0  0  0
    7.8818   -2.6892   -7.3686 H   0  0  0  0  0  0  0  0  0  0  0  0
    7.4272   -1.1140   -5.5345 H   0  0  0  0  0  0  0  0  0  0  0  0
    5.4909   -1.4629   -4.0588 H   0  0  0  0  0  0  0  0  0  0  0  0
    2.9029    4.7073    4.7515 H   0  0  0  0  0  0  0  0  0  0  0  0
    2.6969    5.2481    7.1390 H   0  0  0  0  0  0  0  0  0  0  0  0
    0.4897    5.2584    8.2240 H   0  0  0  0  0  0  0  0  0  0  0  0
   -1.5329    4.7290    6.9327 H   0  0  0  0  0  0  0  0  0  0  0  0
    0.9284   -7.0315   -0.8442 O   0  5  0  0  0  0  0  0  0  0  0  0
  1  2  1  0  0  0  0
  1 41  1  0  0  0  0
  1 42  1  0  0  0  0
  1 43  1  0  0  0  0
  2  3  1  0  0  0  0
  2 32  1  0  0  0  0
  3  4  1  0  0  0  0
  3 44  1  0  0  0  0
  3 45  1  0  0  0  0
  4  5  1  0  0  0  0
  4 46  1  0  0  0  0
  4 47  1  0  0  0  0
  5  6  1  0  0  0  0
  6 11  2  0  0  0  0
  6  7  1  0  0  0  0
  7  8  2  0  0  0  0
  7 48  1  0  0  0  0
  8  9  1  0  0  0  0
  8 49  1  0  0  0  0
  9 10  2  0  0  0  0
  9 12  1  0  0  0  0
 10 11  1  0  0  0  0
 10 50  1  0  0  0  0
 11 51  1  0  0  0  0
 12 13  1  0  0  0  0
 12 52  1  0  0  0  0
 12 53  1  0  0  0  0
 13 14  1  0  0  0  0
 13 15  1  0  0  0  0
 13 17  1  0  0  0  0
 15 16  2  0  0  0  0
 15 67  1  0  0  0  0
 17 18  1  0  0  0  0
 18 23  2  0  0  0  0
 18 19  1  0  0  0  0
 19 20  2  0  0  0  0
 19 54  1  0  0  0  0
 20 21  1  0  0  0  0
 20 55  1  0  0  0  0
 21 22  2  0  0  0  0
 21 56  1  0  0  0  0
 22 23  1  0  0  0  0
 22 57  1  0  0  0  0
 23 24  1  0  0  0  0
 24 25  2  0  0  0  0
 24 26  1  0  0  0  0
 26 31  2  0  0  0  0
 26 27  1  0  0  0  0
 27 28  2  0  0  0  0
 27 58  1  0  0  0  0
 28 29  1  0  0  0  0
 28 59  1  0  0  0  0
 29 30  2  0  0  0  0
 29 60  1  0  0  0  0
 30 31  1  0  0  0  0
 30 61  1  0  0  0  0
 31 62  1  0  0  0  0
 32 40  1  0  0  0  0
 32 33  2  0  0  0  0
 33 34  1  0  0  0  0
 34 39  2  0  0  0  0
 34 35  1  0  0  0  0
 35 36  2  0  0  0  0
 35 63  1  0  0  0  0
 36 37  1  0  0  0  0
 36 64  1  0  0  0  0
 37 38  2  0  0  0  0
 37 65  1  0  0  0  0
 38 39  1  0  0  0  0
 38 66  1  0  0  0  0
 39 40  1  0  0  0  0
M  CHG  1  67  -1
M  END
$$$$
