ZINC03832306
  -OEChem-08230709403D

 65 68  0     1  0  0  0  0  0999 V2000
    0.3270   -1.8908   -0.0879 C   0  0  0  0  0  0  0  0  0  0  0  0
    0.4074   -0.3860   -0.0810 C   0  0  0  0  0  0  0  0  0  0  0  0
   -0.7522    0.3671   -0.0879 C   0  0  0  0  0  0  0  0  0  0  0  0
   -0.6812    1.7467   -0.0811 C   0  0  0  0  0  0  0  0  0  0  0  0
    0.5548    2.3765   -0.0674 C   0  0  0  0  0  0  0  0  0  0  0  0
    1.7168    1.6186   -0.0600 C   0  0  0  0  0  0  0  0  0  0  0  0
    1.6405    0.2393   -0.0673 C   0  0  0  0  0  0  0  0  0  0  0  0
    0.6272    3.7335   -0.0603 O   0  0  0  0  0  0  0  0  0  0  0  0
    1.9332    4.3134   -0.0462 C   0  0  0  0  0  0  0  0  0  0  0  0
    1.8139    5.8388   -0.0399 C   0  0  0  0  0  0  0  0  0  0  0  0
    1.1985    6.2634    1.1779 O   0  0  0  0  0  0  0  0  0  0  0  0
    1.0170    7.6000    1.3441 C   0  0  0  0  0  0  0  0  0  0  0  0
    1.4280    8.4849    0.3579 C   0  0  0  0  0  0  0  0  0  0  0  0
    1.2367    9.8426    0.5266 C   0  0  0  0  0  0  0  0  0  0  0  0
    0.6475   10.3206    1.6824 C   0  0  0  0  0  0  0  0  0  0  0  0
    0.2422    9.4411    2.6693 C   0  0  0  0  0  0  0  0  0  0  0  0
    0.4256    8.0821    2.5028 C   0  0  0  0  0  0  0  0  0  0  0  0
    0.4462   11.8027    1.8667 C   0  0  0  0  0  0  0  0  0  0  0  0
    1.6761   12.4033    2.5504 C   0  0  2  0  0  0  0  0  0  0  0  0
    1.8697   11.8718    3.4822 H   0  0  0  0  0  0  0  0  0  0  0  0
    1.4256   13.8598    2.8456 C   0  0  0  0  0  0  0  0  0  0  0  0
    2.1433   14.7054    2.3663 O   0  0  0  0  0  0  0  0  0  0  0  0
    2.8370   12.2769    1.6659 N   0  0  0  0  0  0  0  0  0  0  0  0
    4.1176   12.2516    2.2008 C   0  0  0  0  0  0  0  0  0  0  0  0
    4.3108   12.4588    3.5611 C   0  0  0  0  0  0  0  0  0  0  0  0
    5.5845   12.4326    4.0904 C   0  0  0  0  0  0  0  0  0  0  0  0
    6.6803   12.2001    3.2731 C   0  0  0  0  0  0  0  0  0  0  0  0
    6.5100   11.9920    1.9228 C   0  0  0  0  0  0  0  0  0  0  0  0
    5.2251   12.0104    1.3708 C   0  0  0  0  0  0  0  0  0  0  0  0
    5.0348   11.7835   -0.0722 C   0  0  0  0  0  0  0  0  0  0  0  0
    5.1258   10.6598   -0.5283 O   0  0  0  0  0  0  0  0  0  0  0  0
    4.7331   12.9215   -0.9659 C   0  0  0  0  0  0  0  0  0  0  0  0
    4.7351   14.2255   -0.4660 C   0  0  0  0  0  0  0  0  0  0  0  0
    4.4574   15.2833   -1.3066 C   0  0  0  0  0  0  0  0  0  0  0  0
    4.1674   15.0538   -2.6401 C   0  0  0  0  0  0  0  0  0  0  0  0
    4.1581   13.7638   -3.1407 C   0  0  0  0  0  0  0  0  0  0  0  0
    4.4392   12.6972   -2.3125 C   0  0  0  0  0  0  0  0  0  0  0  0
    0.3165   -2.2494   -1.1171 H   0  0  0  0  0  0  0  0  0  0  0  0
    1.1919   -2.3032    0.4318 H   0  0  0  0  0  0  0  0  0  0  0  0
   -0.5854   -2.2083    0.4168 H   0  0  0  0  0  0  0  0  0  0  0  0
   -1.7142   -0.1236   -0.0989 H   0  0  0  0  0  0  0  0  0  0  0  0
   -1.5872    2.3345   -0.0910 H   0  0  0  0  0  0  0  0  0  0  0  0
    2.6802    2.1065   -0.0486 H   0  0  0  0  0  0  0  0  0  0  0  0
    2.5448   -0.3511   -0.0619 H   0  0  0  0  0  0  0  0  0  0  0  0
    2.4661    3.9870    0.8469 H   0  0  0  0  0  0  0  0  0  0  0  0
    2.4815    3.9955   -0.9330 H   0  0  0  0  0  0  0  0  0  0  0  0
    2.8069    6.2812   -0.1188 H   0  0  0  0  0  0  0  0  0  0  0  0
    1.2052    6.1591   -0.8855 H   0  0  0  0  0  0  0  0  0  0  0  0
    1.8927    8.1124   -0.5430 H   0  0  0  0  0  0  0  0  0  0  0  0
    1.5518   10.5316   -0.2431 H   0  0  0  0  0  0  0  0  0  0  0  0
   -0.2178    9.8169    3.5713 H   0  0  0  0  0  0  0  0  0  0  0  0
    0.1086    7.3954    3.2737 H   0  0  0  0  0  0  0  0  0  0  0  0
    0.3048   12.2739    0.8940 H   0  0  0  0  0  0  0  0  0  0  0  0
   -0.4343   11.9756    2.4856 H   0  0  0  0  0  0  0  0  0  0  0  0
    2.7108   12.2110    0.7064 H   0  0  0  0  0  0  0  0  0  0  0  0
    3.4629   12.6410    4.2047 H   0  0  0  0  0  0  0  0  0  0  0  0
    5.7291   12.5940    5.1484 H   0  0  0  0  0  0  0  0  0  0  0  0
    7.6730   12.1818    3.6983 H   0  0  0  0  0  0  0  0  0  0  0  0
    7.3673   11.8113    1.2912 H   0  0  0  0  0  0  0  0  0  0  0  0
    4.9575   14.4056    0.5754 H   0  0  0  0  0  0  0  0  0  0  0  0
    4.4622   16.2925   -0.9222 H   0  0  0  0  0  0  0  0  0  0  0  0
    3.9469   15.8854   -3.2930 H   0  0  0  0  0  0  0  0  0  0  0  0
    3.9306   13.5917   -4.1824 H   0  0  0  0  0  0  0  0  0  0  0  0
    4.4316   11.6908   -2.7045 H   0  0  0  0  0  0  0  0  0  0  0  0
    0.4053   14.2176    3.6410 O   0  5  0  0  0  0  0  0  0  0  0  0
  1  2  1  0  0  0  0
  1 38  1  0  0  0  0
  1 39  1  0  0  0  0
  1 40  1  0  0  0  0
  2  7  2  0  0  0  0
  2  3  1  0  0  0  0
  3  4  2  0  0  0  0
  3 41  1  0  0  0  0
  4  5  1  0  0  0  0
  4 42  1  0  0  0  0
  5  6  2  0  0  0  0
  5  8  1  0  0  0  0
  6  7  1  0  0  0  0
  6 43  1  0  0  0  0
  7 44  1  0  0  0  0
  8  9  1  0  0  0  0
  9 10  1  0  0  0  0
  9 45  1  0  0  0  0
  9 46  1  0  0  0  0
 10 11  1  0  0  0  0
 10 47  1  0  0  0  0
 10 48  1  0  0  0  0
 11 12  1  0  0  0  0
 12 17  2  0  0  0  0
 12 13  1  0  0  0  0
 13 14  2  0  0  0  0
 13 49  1  0  0  0  0
 14 15  1  0  0  0  0
 14 50  1  0  0  0  0
 15 16  2  0  0  0  0
 15 18  1  0  0  0  0
 16 17  1  0  0  0  0
 16 51  1  0  0  0  0
 17 52  1  0  0  0  0
 18 19  1  0  0  0  0
 18 53  1  0  0  0  0
 18 54  1  0  0  0  0
 19 20  1  0  0  0  0
 19 21  1  0  0  0  0
 19 23  1  0  0  0  0
 21 22  2  0  0  0  0
 21 65  1  0  0  0  0
 23 24  1  0  0  0  0
 23 55  1  0  0  0  0
 24 29  2  0  0  0  0
 24 25  1  0  0  0  0
 25 26  2  0  0  0  0
 25 56  1  0  0  0  0
 26 27  1  0  0  0  0
 26 57  1  0  0  0  0
 27 28  2  0  0  0  0
 27 58  1  0  0  0  0
 28 29  1  0  0  0  0
 28 59  1  0  0  0  0
 29 30  1  0  0  0  0
 30 31  2  0  0  0  0
 30 32  1  0  0  0  0
 32 37  2  0  0  0  0
 32 33  1  0  0  0  0
 33 34  2  0  0  0  0
 33 60  1  0  0  0  0
 34 35  1  0  0  0  0
 34 61  1  0  0  0  0
 35 36  2  0  0  0  0
 35 62  1  0  0  0  0
 36 37  1  0  0  0  0
 36 63  1  0  0  0  0
 37 64  1  0  0  0  0
M  CHG  1  65  -1
M  END
$$$$
