ZINC03834051
  -OEChem-08230709403D

 65 69  0     1  0  0  0  0  0999 V2000
    0.4737    3.3589   -9.3705 C   0  0  0  0  0  0  0  0  0  0  0  0
    1.8473    3.2730   -8.8687 N   0  0  0  0  0  0  0  0  0  0  0  0
    2.2708    2.1073   -8.0890 C   0  0  0  0  0  0  0  0  0  0  0  0
    2.0162    2.3677   -6.6030 C   0  0  0  0  0  0  0  0  0  0  0  0
    0.6106    2.4854   -6.3740 O   0  0  0  0  0  0  0  0  0  0  0  0
    0.2111    2.7196   -5.0964 C   0  0  0  0  0  0  0  0  0  0  0  0
   -1.1390    2.8448   -4.8024 C   0  0  0  0  0  0  0  0  0  0  0  0
   -1.5425    3.0833   -3.5029 C   0  0  0  0  0  0  0  0  0  0  0  0
   -0.6022    3.1968   -2.4956 C   0  0  0  0  0  0  0  0  0  0  0  0
    0.7442    3.0780   -2.7869 C   0  0  0  0  0  0  0  0  0  0  0  0
    1.1526    2.8343   -4.0839 C   0  0  0  0  0  0  0  0  0  0  0  0
   -1.0452    3.4565   -1.0788 C   0  0  0  0  0  0  0  0  0  0  0  0
   -1.2757    2.1235   -0.3640 C   0  0  2  0  0  0  0  0  0  0  0  0
   -1.9813    1.5215   -0.9366 H   0  0  0  0  0  0  0  0  0  0  0  0
   -1.8355    2.3811    1.0112 C   0  0  0  0  0  0  0  0  0  0  0  0
   -1.2338    2.0040    1.9888 O   0  0  0  0  0  0  0  0  0  0  0  0
   -0.0039    1.4058   -0.2470 N   0  0  0  0  0  0  0  0  0  0  0  0
    0.0044    0.0069   -0.1285 C   0  0  0  0  0  0  0  0  0  0  0  0
   -1.1428   -0.7076   -0.1077 C   0  0  0  0  0  0  0  0  0  0  0  0
   -0.5721   -2.3870    0.0519 S   0  0  0  0  0  0  0  0  0  0  0  0
    1.1363   -2.1094    0.0955 C   0  0  0  0  0  0  0  0  0  0  0  0
    1.2393   -0.7348   -0.0171 C   0  0  0  0  0  0  0  0  0  0  0  0
    2.5441   -0.0601   -0.0235 C   0  0  0  0  0  0  0  0  0  0  0  0
    3.2436   -0.0981   -1.0181 O   0  0  0  0  0  0  0  0  0  0  0  0
    3.0072    0.6654    1.1790 C   0  0  0  0  0  0  0  0  0  0  0  0
    2.2582    0.6214    2.3562 C   0  0  0  0  0  0  0  0  0  0  0  0
    2.6980    1.2972    3.4755 C   0  0  0  0  0  0  0  0  0  0  0  0
    3.8739    2.0251    3.4304 C   0  0  0  0  0  0  0  0  0  0  0  0
    4.6186    2.0768    2.2653 C   0  0  0  0  0  0  0  0  0  0  0  0
    4.1925    1.4021    1.1402 C   0  0  0  0  0  0  0  0  0  0  0  0
    2.7402    4.2876   -9.1298 C   0  0  0  0  0  0  0  0  0  0  0  0
    3.9845    4.3139   -8.7256 N   0  0  0  0  0  0  0  0  0  0  0  0
    4.5637    5.4627   -9.1709 C   0  0  0  0  0  0  0  0  0  0  0  0
    5.8421    6.0083   -9.0465 C   0  0  0  0  0  0  0  0  0  0  0  0
    6.1235    7.2280   -9.6221 C   0  0  0  0  0  0  0  0  0  0  0  0
    5.1445    7.9152  -10.3231 C   0  0  0  0  0  0  0  0  0  0  0  0
    3.8760    7.3868  -10.4536 C   0  0  0  0  0  0  0  0  0  0  0  0
    3.5761    6.1614   -9.8811 C   0  0  0  0  0  0  0  0  0  0  0  0
    2.4594    5.3991   -9.8325 O   0  0  0  0  0  0  0  0  0  0  0  0
   -0.1535    3.8549   -8.6297 H   0  0  0  0  0  0  0  0  0  0  0  0
    0.4609    3.9305  -10.2986 H   0  0  0  0  0  0  0  0  0  0  0  0
    0.0914    2.3552   -9.5567 H   0  0  0  0  0  0  0  0  0  0  0  0
    3.3341    1.9294   -8.2497 H   0  0  0  0  0  0  0  0  0  0  0  0
    1.7040    1.2322   -8.4068 H   0  0  0  0  0  0  0  0  0  0  0  0
    2.5113    3.2923   -6.3062 H   0  0  0  0  0  0  0  0  0  0  0  0
    2.4119    1.5390   -6.0158 H   0  0  0  0  0  0  0  0  0  0  0  0
   -1.8739    2.7556   -5.5888 H   0  0  0  0  0  0  0  0  0  0  0  0
   -2.5933    3.1809   -3.2735 H   0  0  0  0  0  0  0  0  0  0  0  0
    1.4770    3.1718   -1.9991 H   0  0  0  0  0  0  0  0  0  0  0  0
    2.2042    2.7376   -4.3103 H   0  0  0  0  0  0  0  0  0  0  0  0
   -1.9725    4.0293   -1.0873 H   0  0  0  0  0  0  0  0  0  0  0  0
   -0.2741    4.0212   -0.5547 H   0  0  0  0  0  0  0  0  0  0  0  0
    0.8326    1.8968   -0.2555 H   0  0  0  0  0  0  0  0  0  0  0  0
   -2.1589   -0.3476   -0.1733 H   0  0  0  0  0  0  0  0  0  0  0  0
    1.9306   -2.8352    0.1888 H   0  0  0  0  0  0  0  0  0  0  0  0
    1.3383    0.0566    2.3916 H   0  0  0  0  0  0  0  0  0  0  0  0
    2.1211    1.2615    4.3878 H   0  0  0  0  0  0  0  0  0  0  0  0
    4.2118    2.5555    4.3084 H   0  0  0  0  0  0  0  0  0  0  0  0
    5.5353    2.6471    2.2367 H   0  0  0  0  0  0  0  0  0  0  0  0
    4.7743    1.4438    0.2312 H   0  0  0  0  0  0  0  0  0  0  0  0
    6.6080    5.4763   -8.5016 H   0  0  0  0  0  0  0  0  0  0  0  0
    7.1126    7.6511   -9.5268 H   0  0  0  0  0  0  0  0  0  0  0  0
    5.3759    8.8708  -10.7700 H   0  0  0  0  0  0  0  0  0  0  0  0
    3.1184    7.9280  -11.0008 H   0  0  0  0  0  0  0  0  0  0  0  0
   -3.0025    3.0296    1.1502 O   0  5  0  0  0  0  0  0  0  0  0  0
  1  2  1  0  0  0  0
  1 40  1  0  0  0  0
  1 41  1  0  0  0  0
  1 42  1  0  0  0  0
  2  3  1  0  0  0  0
  2 31  1  0  0  0  0
  3  4  1  0  0  0  0
  3 43  1  0  0  0  0
  3 44  1  0  0  0  0
  4  5  1  0  0  0  0
  4 45  1  0  0  0  0
  4 46  1  0  0  0  0
  5  6  1  0  0  0  0
  6 11  2  0  0  0  0
  6  7  1  0  0  0  0
  7  8  2  0  0  0  0
  7 47  1  0  0  0  0
  8  9  1  0  0  0  0
  8 48  1  0  0  0  0
  9 10  2  0  0  0  0
  9 12  1  0  0  0  0
 10 11  1  0  0  0  0
 10 49  1  0  0  0  0
 11 50  1  0  0  0  0
 12 13  1  0  0  0  0
 12 51  1  0  0  0  0
 12 52  1  0  0  0  0
 13 14  1  0  0  0  0
 13 15  1  0  0  0  0
 13 17  1  0  0  0  0
 15 16  2  0  0  0  0
 15 65  1  0  0  0  0
 17 18  1  0  0  0  0
 17 53  1  0  0  0  0
 18 22  1  0  0  0  0
 18 19  2  0  0  0  0
 19 20  1  0  0  0  0
 19 54  1  0  0  0  0
 20 21  1  0  0  0  0
 21 22  2  0  0  0  0
 21 55  1  0  0  0  0
 22 23  1  0  0  0  0
 23 24  2  0  0  0  0
 23 25  1  0  0  0  0
 25 30  2  0  0  0  0
 25 26  1  0  0  0  0
 26 27  2  0  0  0  0
 26 56  1  0  0  0  0
 27 28  1  0  0  0  0
 27 57  1  0  0  0  0
 28 29  2  0  0  0  0
 28 58  1  0  0  0  0
 29 30  1  0  0  0  0
 29 59  1  0  0  0  0
 30 60  1  0  0  0  0
 31 39  1  0  0  0  0
 31 32  2  0  0  0  0
 32 33  1  0  0  0  0
 33 38  2  0  0  0  0
 33 34  1  0  0  0  0
 34 35  2  0  0  0  0
 34 61  1  0  0  0  0
 35 36  1  0  0  0  0
 35 62  1  0  0  0  0
 36 37  2  0  0  0  0
 36 63  1  0  0  0  0
 37 38  1  0  0  0  0
 37 64  1  0  0  0  0
 38 39  1  0  0  0  0
M  CHG  1  65  -1
M  END
$$$$
