ZINC04137625
  -OEChem-08230709403D

 72 75  0     1  0  0  0  0  0999 V2000
    1.4037   18.1629    0.9337 C   0  0  0  0  0  0  0  0  0  0  0  0
    0.9730   17.4830    2.1145 O   0  0  0  0  0  0  0  0  0  0  0  0
    1.2457   16.1532    2.1954 C   0  0  0  0  0  0  0  0  0  0  0  0
    1.9128   15.5170    1.1609 C   0  0  0  0  0  0  0  0  0  0  0  0
    2.1939   14.1662    1.2470 C   0  0  0  0  0  0  0  0  0  0  0  0
    1.8008   13.4448    2.3590 C   0  0  0  0  0  0  0  0  0  0  0  0
    1.1350   14.0734    3.3947 C   0  0  0  0  0  0  0  0  0  0  0  0
    0.8551   15.4283    3.3171 C   0  0  0  0  0  0  0  0  0  0  0  0
    0.1998   16.0481    4.3349 O   0  0  0  0  0  0  0  0  0  0  0  0
   -0.1709   15.2412    5.4545 C   0  0  0  0  0  0  0  0  0  0  0  0
    2.1044   11.9712    2.4450 C   0  0  0  0  0  0  0  0  0  0  0  0
    0.9446   11.1756    1.8427 C   0  0  0  0  0  0  0  0  0  0  0  0
    1.2527    9.6795    1.9300 C   0  0  0  0  0  0  0  0  0  0  0  0
    0.1695    8.9364    1.3674 O   0  0  0  0  0  0  0  0  0  0  0  0
    0.2850    7.5823    1.3664 C   0  0  0  0  0  0  0  0  0  0  0  0
   -0.7295    6.7988    0.8357 C   0  0  0  0  0  0  0  0  0  0  0  0
   -0.6099    5.4226    0.8363 C   0  0  0  0  0  0  0  0  0  0  0  0
    0.5200    4.8259    1.3647 C   0  0  0  0  0  0  0  0  0  0  0  0
    1.5299    5.6043    1.8992 C   0  0  0  0  0  0  0  0  0  0  0  0
    1.4174    6.9811    1.8964 C   0  0  0  0  0  0  0  0  0  0  0  0
    0.6480    3.3243    1.3635 C   0  0  0  0  0  0  0  0  0  0  0  0
    1.3258    2.8713    0.0688 C   0  0  2  0  0  0  0  0  0  0  0  0
    0.7733    3.2610   -0.7862 H   0  0  0  0  0  0  0  0  0  0  0  0
    1.3435    1.3655    0.0113 C   0  0  0  0  0  0  0  0  0  0  0  0
    2.3962    0.7757   -0.0521 O   0  0  0  0  0  0  0  0  0  0  0  0
    2.7001    3.3775    0.0340 N   0  0  0  0  0  0  0  0  0  0  0  0
    3.3404    3.5642   -1.1834 C   0  0  0  0  0  0  0  0  0  0  0  0
    2.7253    3.1670   -2.3643 C   0  0  0  0  0  0  0  0  0  0  0  0
    3.3636    3.3540   -3.5730 C   0  0  0  0  0  0  0  0  0  0  0  0
    4.6203    3.9380   -3.6210 C   0  0  0  0  0  0  0  0  0  0  0  0
    5.2464    4.3388   -2.4620 C   0  0  0  0  0  0  0  0  0  0  0  0
    4.6113    4.1610   -1.2288 C   0  0  0  0  0  0  0  0  0  0  0  0
    5.2729    4.5921    0.0149 C   0  0  0  0  0  0  0  0  0  0  0  0
    5.3189    5.7730    0.3013 O   0  0  0  0  0  0  0  0  0  0  0  0
    5.8808    3.5892    0.9145 C   0  0  0  0  0  0  0  0  0  0  0  0
    5.9263    2.2452    0.5379 C   0  0  0  0  0  0  0  0  0  0  0  0
    6.4993    1.3153    1.3802 C   0  0  0  0  0  0  0  0  0  0  0  0
    7.0193    1.7100    2.6004 C   0  0  0  0  0  0  0  0  0  0  0  0
    6.9723    3.0392    2.9824 C   0  0  0  0  0  0  0  0  0  0  0  0
    6.4069    3.9804    2.1475 C   0  0  0  0  0  0  0  0  0  0  0  0
    1.1240   19.2145    0.9975 H   0  0  0  0  0  0  0  0  0  0  0  0
    2.4866   18.0799    0.8412 H   0  0  0  0  0  0  0  0  0  0  0  0
    0.9290   17.7130    0.0617 H   0  0  0  0  0  0  0  0  0  0  0  0
    2.2170   16.0773    0.2891 H   0  0  0  0  0  0  0  0  0  0  0  0
    2.7177   13.6724    0.4420 H   0  0  0  0  0  0  0  0  0  0  0  0
    0.8333   13.5085    4.2643 H   0  0  0  0  0  0  0  0  0  0  0  0
   -0.6851   15.8573    6.1921 H   0  0  0  0  0  0  0  0  0  0  0  0
   -0.8340   14.4421    5.1228 H   0  0  0  0  0  0  0  0  0  0  0  0
    0.7236   14.8085    5.9026 H   0  0  0  0  0  0  0  0  0  0  0  0
    2.2358   11.6876    3.4893 H   0  0  0  0  0  0  0  0  0  0  0  0
    3.0187   11.7556    1.8921 H   0  0  0  0  0  0  0  0  0  0  0  0
    0.8131   11.4591    0.7984 H   0  0  0  0  0  0  0  0  0  0  0  0
    0.0303   11.3911    2.3956 H   0  0  0  0  0  0  0  0  0  0  0  0
    1.3842    9.3959    2.9742 H   0  0  0  0  0  0  0  0  0  0  0  0
    2.1670    9.4639    1.3771 H   0  0  0  0  0  0  0  0  0  0  0  0
   -1.6122    7.2644    0.4229 H   0  0  0  0  0  0  0  0  0  0  0  0
   -1.3994    4.8122    0.4233 H   0  0  0  0  0  0  0  0  0  0  0  0
    2.4093    5.1356    2.3157 H   0  0  0  0  0  0  0  0  0  0  0  0
    2.2088    7.5889    2.3097 H   0  0  0  0  0  0  0  0  0  0  0  0
   -0.3428    2.8751    1.4314 H   0  0  0  0  0  0  0  0  0  0  0  0
    1.2486    3.0102    2.2172 H   0  0  0  0  0  0  0  0  0  0  0  0
    3.1626    3.5823    0.8617 H   0  0  0  0  0  0  0  0  0  0  0  0
    1.7467    2.7110   -2.3360 H   0  0  0  0  0  0  0  0  0  0  0  0
    2.8810    3.0438   -4.4880 H   0  0  0  0  0  0  0  0  0  0  0  0
    5.1107    4.0795   -4.5728 H   0  0  0  0  0  0  0  0  0  0  0  0
    6.2253    4.7931   -2.5056 H   0  0  0  0  0  0  0  0  0  0  0  0
    5.5175    1.9353   -0.4125 H   0  0  0  0  0  0  0  0  0  0  0  0
    6.5386    0.2762    1.0886 H   0  0  0  0  0  0  0  0  0  0  0  0
    7.4634    0.9772    3.2578 H   0  0  0  0  0  0  0  0  0  0  0  0
    7.3796    3.3404    3.9362 H   0  0  0  0  0  0  0  0  0  0  0  0
    6.3709    5.0175    2.4468 H   0  0  0  0  0  0  0  0  0  0  0  0
    0.1900    0.6795    0.0307 O   0  5  0  0  0  0  0  0  0  0  0  0
  1  2  1  0  0  0  0
  1 41  1  0  0  0  0
  1 42  1  0  0  0  0
  1 43  1  0  0  0  0
  2  3  1  0  0  0  0
  3  8  2  0  0  0  0
  3  4  1  0  0  0  0
  4  5  2  0  0  0  0
  4 44  1  0  0  0  0
  5  6  1  0  0  0  0
  5 45  1  0  0  0  0
  6  7  2  0  0  0  0
  6 11  1  0  0  0  0
  7  8  1  0  0  0  0
  7 46  1  0  0  0  0
  8  9  1  0  0  0  0
  9 10  1  0  0  0  0
 10 47  1  0  0  0  0
 10 48  1  0  0  0  0
 10 49  1  0  0  0  0
 11 12  1  0  0  0  0
 11 50  1  0  0  0  0
 11 51  1  0  0  0  0
 12 13  1  0  0  0  0
 12 52  1  0  0  0  0
 12 53  1  0  0  0  0
 13 14  1  0  0  0  0
 13 54  1  0  0  0  0
 13 55  1  0  0  0  0
 14 15  1  0  0  0  0
 15 20  2  0  0  0  0
 15 16  1  0  0  0  0
 16 17  2  0  0  0  0
 16 56  1  0  0  0  0
 17 18  1  0  0  0  0
 17 57  1  0  0  0  0
 18 19  2  0  0  0  0
 18 21  1  0  0  0  0
 19 20  1  0  0  0  0
 19 58  1  0  0  0  0
 20 59  1  0  0  0  0
 21 22  1  0  0  0  0
 21 60  1  0  0  0  0
 21 61  1  0  0  0  0
 22 23  1  0  0  0  0
 22 24  1  0  0  0  0
 22 26  1  0  0  0  0
 24 25  2  0  0  0  0
 24 72  1  0  0  0  0
 26 27  1  0  0  0  0
 26 62  1  0  0  0  0
 27 32  2  0  0  0  0
 27 28  1  0  0  0  0
 28 29  2  0  0  0  0
 28 63  1  0  0  0  0
 29 30  1  0  0  0  0
 29 64  1  0  0  0  0
 30 31  2  0  0  0  0
 30 65  1  0  0  0  0
 31 32  1  0  0  0  0
 31 66  1  0  0  0  0
 32 33  1  0  0  0  0
 33 34  2  0  0  0  0
 33 35  1  0  0  0  0
 35 40  2  0  0  0  0
 35 36  1  0  0  0  0
 36 37  2  0  0  0  0
 36 67  1  0  0  0  0
 37 38  1  0  0  0  0
 37 68  1  0  0  0  0
 38 39  2  0  0  0  0
 38 69  1  0  0  0  0
 39 40  1  0  0  0  0
 39 70  1  0  0  0  0
 40 71  1  0  0  0  0
M  CHG  1  72  -1
M  END
$$$$
