ZINC04646294
  -OEChem-08230709403D

 59 59  0     1  0  0  0  0  0999 V2000
   -4.6728   -3.8750    5.3802 C   0  0  0  0  0  0  0  0  0  0  0  0
   -3.7312   -3.4657    4.2459 C   0  0  0  0  0  0  0  0  0  0  0  0
   -2.4592   -2.8528    4.8350 C   0  0  0  0  0  0  0  0  0  0  0  0
   -1.5175   -2.4436    3.7007 C   0  0  0  0  0  0  0  0  0  0  0  0
   -0.2455   -1.8307    4.2899 C   0  0  0  0  0  0  0  0  0  0  0  0
    0.6962   -1.4214    3.1555 C   0  0  0  0  0  0  0  0  0  0  0  0
    1.9682   -0.8085    3.7447 C   0  0  0  0  0  0  0  0  0  0  0  0
    2.8888   -0.3552    2.6098 C   0  0  2  0  0  0  0  0  0  0  0  0
    3.0568   -1.1859    1.9244 H   0  0  0  0  0  0  0  0  0  0  0  0
    4.2271    0.1046    3.1916 C   0  0  0  0  0  0  0  0  0  0  0  0
    5.1989    0.4157    2.0515 C   0  0  0  0  0  0  0  0  0  0  0  0
    2.2785    0.7279    1.9052 O   0  0  0  0  0  0  0  0  0  0  0  0
    1.5457    0.3274    0.7456 C   0  0  2  0  0  0  0  0  0  0  0  0
    1.0253   -0.6078    0.9521 H   0  0  0  0  0  0  0  0  0  0  0  0
    2.4965    0.1226   -0.3977 C   0  0  0  0  0  0  0  0  0  0  0  0
    2.2627    0.5326   -1.6266 C   0  0  0  0  0  0  0  0  0  0  0  0
    1.0194    1.2653   -2.0395 C   0  0  0  0  0  0  0  0  0  0  0  0
   -0.0734    1.0915   -0.9837 C   0  0  1  0  0  0  0  0  0  0  0  0
   -0.4320    0.0623   -0.9984 H   0  0  0  0  0  0  0  0  0  0  0  0
    0.5232    1.4096    0.3928 C   0  0  1  0  0  0  0  0  0  0  0  0
    1.0148    2.3820    0.3630 H   0  0  0  0  0  0  0  0  0  0  0  0
   -0.5417    1.4272    1.3987 N   0  0  0  0  0  0  0  0  0  0  0  0
   -1.1473    2.5879    1.7187 C   0  0  0  0  0  0  0  0  0  0  0  0
   -0.8072    3.6186    1.1777 O   0  0  0  0  0  0  0  0  0  0  0  0
   -2.2470    2.6050    2.7490 C   0  0  0  0  0  0  0  0  0  0  0  0
    3.2771    0.2567   -2.6534 C   0  0  0  0  0  0  0  0  0  0  0  0
    4.2966   -0.3346   -2.3569 O   0  0  0  0  0  0  0  0  0  0  0  0
   -4.1776   -4.6080    6.0170 H   0  0  0  0  0  0  0  0  0  0  0  0
   -4.9327   -2.9968    5.9713 H   0  0  0  0  0  0  0  0  0  0  0  0
   -5.5791   -4.3116    4.9605 H   0  0  0  0  0  0  0  0  0  0  0  0
   -4.2265   -2.7327    3.6091 H   0  0  0  0  0  0  0  0  0  0  0  0
   -3.4713   -4.3439    3.6548 H   0  0  0  0  0  0  0  0  0  0  0  0
   -1.9639   -3.5858    5.4718 H   0  0  0  0  0  0  0  0  0  0  0  0
   -2.7191   -1.9747    5.4261 H   0  0  0  0  0  0  0  0  0  0  0  0
   -2.0128   -1.7106    3.0639 H   0  0  0  0  0  0  0  0  0  0  0  0
   -1.2576   -3.3217    3.1096 H   0  0  0  0  0  0  0  0  0  0  0  0
    0.2498   -2.5637    4.9266 H   0  0  0  0  0  0  0  0  0  0  0  0
   -0.5054   -0.9525    4.8810 H   0  0  0  0  0  0  0  0  0  0  0  0
    0.2009   -0.6884    2.5187 H   0  0  0  0  0  0  0  0  0  0  0  0
    0.9561   -2.2996    2.5644 H   0  0  0  0  0  0  0  0  0  0  0  0
    2.4816   -1.5525    4.3538 H   0  0  0  0  0  0  0  0  0  0  0  0
    1.7052    0.0492    4.3638 H   0  0  0  0  0  0  0  0  0  0  0  0
    4.0733    1.0008    3.7926 H   0  0  0  0  0  0  0  0  0  0  0  0
    4.6420   -0.6857    3.8172 H   0  0  0  0  0  0  0  0  0  0  0  0
    6.1783    0.6570    2.4645 H   0  0  0  0  0  0  0  0  0  0  0  0
    5.2838   -0.4535    1.3992 H   0  0  0  0  0  0  0  0  0  0  0  0
    4.8268    1.2650    1.4785 H   0  0  0  0  0  0  0  0  0  0  0  0
    3.4262   -0.3905   -0.2006 H   0  0  0  0  0  0  0  0  0  0  0  0
    1.2450    2.3259   -2.1502 H   0  0  0  0  0  0  0  0  0  0  0  0
    0.6663    0.8697   -2.9918 H   0  0  0  0  0  0  0  0  0  0  0  0
   -0.8137    0.6028    1.8314 H   0  0  0  0  0  0  0  0  0  0  0  0
   -2.4120    1.5938    3.1211 H   0  0  0  0  0  0  0  0  0  0  0  0
   -1.9600    3.2543    3.5761 H   0  0  0  0  0  0  0  0  0  0  0  0
   -3.1646    2.9791    2.2948 H   0  0  0  0  0  0  0  0  0  0  0  0
   -1.5939    1.8182   -2.1663 H   0  0  0  0  0  0  0  0  0  0  0  0
   -1.8820    1.9667   -0.5351 H   0  0  0  0  0  0  0  0  0  0  0  0
   -1.1730    2.0317   -1.2635 N   0  3  0  0  0  0  0  0  0  0  0  0
   -0.8015    2.9887   -1.2851 H   0  0  0  0  0  0  0  0  0  0  0  0
    3.0767    0.6595   -3.9241 O   0  5  0  0  0  0  0  0  0  0  0  0
  1  2  1  0  0  0  0
  1 28  1  0  0  0  0
  1 29  1  0  0  0  0
  1 30  1  0  0  0  0
  2  3  1  0  0  0  0
  2 31  1  0  0  0  0
  2 32  1  0  0  0  0
  3  4  1  0  0  0  0
  3 33  1  0  0  0  0
  3 34  1  0  0  0  0
  4  5  1  0  0  0  0
  4 35  1  0  0  0  0
  4 36  1  0  0  0  0
  5  6  1  0  0  0  0
  5 37  1  0  0  0  0
  5 38  1  0  0  0  0
  6  7  1  0  0  0  0
  6 39  1  0  0  0  0
  6 40  1  0  0  0  0
  7  8  1  0  0  0  0
  7 41  1  0  0  0  0
  7 42  1  0  0  0  0
  8  9  1  0  0  0  0
  8 10  1  0  0  0  0
  8 12  1  0  0  0  0
 10 11  1  0  0  0  0
 10 43  1  0  0  0  0
 10 44  1  0  0  0  0
 11 45  1  0  0  0  0
 11 46  1  0  0  0  0
 11 47  1  0  0  0  0
 12 13  1  0  0  0  0
 13 14  1  0  0  0  0
 13 20  1  0  0  0  0
 13 15  1  0  0  0  0
 15 16  2  0  0  0  0
 15 48  1  0  0  0  0
 16 17  1  0  0  0  0
 16 26  1  0  0  0  0
 17 18  1  0  0  0  0
 17 49  1  0  0  0  0
 17 50  1  0  0  0  0
 18 19  1  0  0  0  0
 18 20  1  0  0  0  0
 18 57  1  0  0  0  0
 20 21  1  0  0  0  0
 20 22  1  0  0  0  0
 22 23  1  0  0  0  0
 22 51  1  0  0  0  0
 23 24  2  0  0  0  0
 23 25  1  0  0  0  0
 25 52  1  0  0  0  0
 25 53  1  0  0  0  0
 25 54  1  0  0  0  0
 26 27  2  0  0  0  0
 26 59  1  0  0  0  0
 55 57  1  0  0  0  0
 56 57  1  0  0  0  0
 57 58  1  0  0  0  0
M  CHG  2  57   1  59  -1
M  END
$$$$
