ZINC04134499
  -OEChem-08230709403D

 39 39  0     1  0  0  0  0  0999 V2000
   -2.5107    0.8159   -0.0506 C   0  0  0  0  0  0  0  0  0  0  0  0
   -1.2122    1.5780    0.0139 C   0  0  0  0  0  0  0  0  0  0  0  0
   -1.2228    2.7850    0.1320 O   0  0  0  0  0  0  0  0  0  0  0  0
   -0.0392    0.9184   -0.0596 N   0  0  0  0  0  0  0  0  0  0  0  0
    1.2230    1.6599   -0.0029 C   0  0  1  0  0  0  0  0  0  0  0  0
    1.1018    2.6236   -0.4975 H   0  0  0  0  0  0  0  0  0  0  0  0
    1.6221    1.8801    1.4595 C   0  0  1  0  0  0  0  0  0  0  0  0
    0.8203    2.4023    1.9816 H   0  0  0  0  0  0  0  0  0  0  0  0
    1.8641    0.5202    2.1216 C   0  0  0  0  0  0  0  0  0  0  0  0
    2.9361   -0.2382    1.3347 C   0  0  2  0  0  0  0  0  0  0  0  0
    3.8732    0.3176    1.3685 H   0  0  0  0  0  0  0  0  0  0  0  0
    2.5159   -0.3817   -0.0236 O   0  0  0  0  0  0  0  0  0  0  0  0
    2.3198    0.8575   -0.7077 C   0  0  2  0  0  0  0  0  0  0  0  0
    2.0216    0.6609   -1.7375 H   0  0  0  0  0  0  0  0  0  0  0  0
    3.6237    1.6578   -0.6980 C   0  0  2  0  0  0  0  0  0  0  0  0
    3.8771    1.9272    0.3273 H   0  0  0  0  0  0  0  0  0  0  0  0
    3.4479    2.9293   -1.5308 C   0  0  2  0  0  0  0  0  0  0  0  0
    3.0849    2.6656   -2.5242 H   0  0  0  0  0  0  0  0  0  0  0  0
    4.7927    3.6485   -1.6535 C   0  0  0  0  0  0  0  0  0  0  0  0
    4.6543    4.7716   -2.5262 O   0  0  0  0  0  0  0  0  0  0  0  0
    2.5037    3.7906   -0.8916 O   0  0  0  0  0  0  0  0  0  0  0  0
    4.6736    0.8647   -1.2554 O   0  0  0  0  0  0  0  0  0  0  0  0
    3.1803   -1.8870    2.0730 P   0  0  0  0  0  0  0  0  0  0  0  0
    1.9077   -2.6412    2.0275 O   0  0  0  0  0  0  0  0  0  0  0  0
    2.8187    2.6592    1.5164 O   0  0  0  0  0  0  0  0  0  0  0  0
   -2.3022   -0.2488   -0.1563 H   0  0  0  0  0  0  0  0  0  0  0  0
   -3.0777    0.9860    0.8646 H   0  0  0  0  0  0  0  0  0  0  0  0
   -3.0913    1.1591   -0.9069 H   0  0  0  0  0  0  0  0  0  0  0  0
   -0.0308   -0.0470   -0.1540 H   0  0  0  0  0  0  0  0  0  0  0  0
    0.9379   -0.0545    2.1224 H   0  0  0  0  0  0  0  0  0  0  0  0
    2.2016    0.6684    3.1474 H   0  0  0  0  0  0  0  0  0  0  0  0
    5.1131    3.9904   -0.6694 H   0  0  0  0  0  0  0  0  0  0  0  0
    5.5360    2.9624   -2.0595 H   0  0  0  0  0  0  0  0  0  0  0  0
    5.4700    5.2758   -2.6509 H   0  0  0  0  0  0  0  0  0  0  0  0
    2.7360    4.0228    0.0179 H   0  0  0  0  0  0  0  0  0  0  0  0
    4.7906    0.0074   -0.8236 H   0  0  0  0  0  0  0  0  0  0  0  0
    3.1715    2.7736    2.4094 H   0  0  0  0  0  0  0  0  0  0  0  0
    4.3068   -2.6847    1.2443 O   0  5  0  0  0  0  0  0  0  0  0  0
    3.6537   -1.7250    3.6033 O   0  5  0  0  0  0  0  0  0  0  0  0
  1  2  1  0  0  0  0
  1 26  1  0  0  0  0
  1 27  1  0  0  0  0
  1 28  1  0  0  0  0
  2  3  2  0  0  0  0
  2  4  1  0  0  0  0
  4  5  1  0  0  0  0
  4 29  1  0  0  0  0
  5  6  1  0  0  0  0
  5 13  1  0  0  0  0
  5  7  1  0  0  0  0
  7  8  1  0  0  0  0
  7  9  1  0  0  0  0
  7 25  1  0  0  0  0
  9 10  1  0  0  0  0
  9 30  1  0  0  0  0
  9 31  1  0  0  0  0
 10 11  1  0  0  0  0
 10 12  1  0  0  0  0
 10 23  1  0  0  0  0
 12 13  1  0  0  0  0
 13 14  1  0  0  0  0
 13 15  1  0  0  0  0
 15 16  1  0  0  0  0
 15 17  1  0  0  0  0
 15 22  1  0  0  0  0
 17 18  1  0  0  0  0
 17 19  1  0  0  0  0
 17 21  1  0  0  0  0
 19 20  1  0  0  0  0
 19 32  1  0  0  0  0
 19 33  1  0  0  0  0
 20 34  1  0  0  0  0
 21 35  1  0  0  0  0
 22 36  1  0  0  0  0
 23 24  2  0  0  0  0
 23 38  1  0  0  0  0
 23 39  1  0  0  0  0
 25 37  1  0  0  0  0
M  CHG  2  38  -1  39  -1
M  END
$$$$
