ZINC04134501
  -OEChem-08230709403D

 36 36  0     1  0  0  0  0  0999 V2000
    4.4811    4.9477   -0.7380 C   0  0  0  0  0  0  0  0  0  0  0  0
    3.2556    4.1212   -1.0315 C   0  0  0  0  0  0  0  0  0  0  0  0
    3.1790    3.4973   -2.0687 O   0  0  0  0  0  0  0  0  0  0  0  0
    2.2447    4.0753   -0.1413 N   0  0  0  0  0  0  0  0  0  0  0  0
    1.0534    3.2718   -0.4266 C   0  0  1  0  0  0  0  0  0  0  0  0
    0.8312    3.3098   -1.4930 H   0  0  0  0  0  0  0  0  0  0  0  0
    1.2952    1.8199   -0.0005 C   0  0  1  0  0  0  0  0  0  0  0  0
    1.7299    1.8020    0.9988 H   0  0  0  0  0  0  0  0  0  0  0  0
   -0.0126    1.0758    0.0080 C   0  0  0  0  0  0  0  0  0  0  0  0
   -1.1814    1.6994    0.0170 C   0  0  0  0  0  0  0  0  0  0  0  0
   -1.2982    3.0494    0.0223 O   0  0  0  0  0  0  0  0  0  0  0  0
   -0.1407    3.8141    0.3706 C   0  0  2  0  0  0  0  0  0  0  0  0
    0.0559    3.7172    1.4383 H   0  0  0  0  0  0  0  0  0  0  0  0
   -0.3692    5.2857    0.0199 C   0  0  2  0  0  0  0  0  0  0  0  0
    0.4866    5.8748    0.3496 H   0  0  0  0  0  0  0  0  0  0  0  0
   -1.6336    5.7866    0.7208 C   0  0  2  0  0  0  0  0  0  0  0  0
   -2.4894    5.1975    0.3911 H   0  0  0  0  0  0  0  0  0  0  0  0
   -1.8621    7.2583    0.3701 C   0  0  0  0  0  0  0  0  0  0  0  0
   -3.1030    7.6940    0.9289 O   0  0  0  0  0  0  0  0  0  0  0  0
   -1.4793    5.6523    2.1350 O   0  0  0  0  0  0  0  0  0  0  0  0
   -0.5235    5.4200   -1.3944 O   0  0  0  0  0  0  0  0  0  0  0  0
   -2.4110    0.8876    0.0272 C   0  0  0  0  0  0  0  0  0  0  0  0
   -2.3383   -0.3254    0.0272 O   0  0  0  0  0  0  0  0  0  0  0  0
    2.1922    1.1961   -0.9215 O   0  0  0  0  0  0  0  0  0  0  0  0
    5.2143    4.3363   -0.2120 H   0  0  0  0  0  0  0  0  0  0  0  0
    4.9107    5.3055   -1.6738 H   0  0  0  0  0  0  0  0  0  0  0  0
    4.2047    5.7991   -0.1161 H   0  0  0  0  0  0  0  0  0  0  0  0
    2.3060    4.5743    0.6883 H   0  0  0  0  0  0  0  0  0  0  0  0
    0.0021   -0.0041    0.0020 H   0  0  0  0  0  0  0  0  0  0  0  0
   -1.0492    7.8593    0.7776 H   0  0  0  0  0  0  0  0  0  0  0  0
   -1.8912    7.3733   -0.7134 H   0  0  0  0  0  0  0  0  0  0  0  0
   -3.3133    8.6199    0.7458 H   0  0  0  0  0  0  0  0  0  0  0  0
   -0.7349    6.1512    2.4986 H   0  0  0  0  0  0  0  0  0  0  0  0
   -1.2679    4.9211   -1.7579 H   0  0  0  0  0  0  0  0  0  0  0  0
    2.3906    0.2729   -0.7133 H   0  0  0  0  0  0  0  0  0  0  0  0
   -3.6165    1.4904    0.0365 O   0  5  0  0  0  0  0  0  0  0  0  0
  1  2  1  0  0  0  0
  1 25  1  0  0  0  0
  1 26  1  0  0  0  0
  1 27  1  0  0  0  0
  2  3  2  0  0  0  0
  2  4  1  0  0  0  0
  4  5  1  0  0  0  0
  4 28  1  0  0  0  0
  5  6  1  0  0  0  0
  5 12  1  0  0  0  0
  5  7  1  0  0  0  0
  7  8  1  0  0  0  0
  7  9  1  0  0  0  0
  7 24  1  0  0  0  0
  9 10  2  0  0  0  0
  9 29  1  0  0  0  0
 10 11  1  0  0  0  0
 10 22  1  0  0  0  0
 11 12  1  0  0  0  0
 12 13  1  0  0  0  0
 12 14  1  0  0  0  0
 14 15  1  0  0  0  0
 14 16  1  0  0  0  0
 14 21  1  0  0  0  0
 16 17  1  0  0  0  0
 16 18  1  0  0  0  0
 16 20  1  0  0  0  0
 18 19  1  0  0  0  0
 18 30  1  0  0  0  0
 18 31  1  0  0  0  0
 19 32  1  0  0  0  0
 20 33  1  0  0  0  0
 21 34  1  0  0  0  0
 22 23  2  0  0  0  0
 22 36  1  0  0  0  0
 24 35  1  0  0  0  0
M  CHG  1  36  -1
M  END
$$$$
