2qwf/ligand
 OpenBabel04140820253D

 45 45  0  0  0  0  0  0  0  0999 V2000
   23.7090   19.6060   64.8490 C   0  0  0  0  0
   24.1840   20.8700   64.9430 O   0  0  0  0  0
   22.5330   19.3520   65.4680 O   0  0  0  0  0
   24.3990   18.6480   64.1270 C   0  0  0  0  0
   24.0000   17.3610   64.0350 C   0  0  0  0  0
   24.6690   16.4480   63.2620 C   0  0  0  0  0
   25.8010   16.7970   62.5970 C   0  0  0  0  0
   26.5260   15.9550   61.8370 N   0  0  0  0  0
   27.0250   14.7700   62.1630 C   0  0  0  0  0
   26.8660   14.2740   63.2720 O   0  0  0  0  0
   27.8390   14.0810   61.1880 C   0  0  0  0  0
   26.1860   18.2180   62.5470 C   0  0  0  0  0
   25.5680   19.0400   63.5720 O   0  0  0  0  0
   27.6380   18.4090   62.6880 C   0  0  0  0  0
   28.0610   18.1680   63.8150 O   0  0  0  0  0
   28.5080   18.7510   61.7110 N   0  0  0  0  0
   28.0540   19.0290   60.3610 C   0  0  0  0  0
   29.9400   18.8320   61.9800 C   0  0  0  0  0
   30.6000   17.4280   62.0960 C   0  0  0  0  0
   32.1390   17.4930   62.2460 C   0  0  0  0  0
   24.1080   15.2310   63.1970 N   0  0  0  0  0
   23.7530   14.5330   62.0910 C   0  0  0  0  0
   23.8840   14.9890   60.8330 N   0  0  0  0  0
   23.1930   13.3240   62.2610 N   0  0  0  0  0
   23.1650   17.0780   64.5020 H   0  0  0  0  0
   26.8550   16.3250   61.0000 H   0  0  0  0  0
   27.2430   13.8770   60.2950 H   0  0  0  0  0
   28.2210   13.1350   61.5770 H   0  0  0  0  0
   28.6890   14.7080   60.9120 H   0  0  0  0  0
   25.8150   18.6070   61.5940 H   0  0  0  0  0
   27.5070   18.1710   59.9650 H   0  0  0  0  0
   28.8650   19.2330   59.6600 H   0  0  0  0  0
   27.3990   19.9030   60.3620 H   0  0  0  0  0
   30.4660   19.3840   61.1950 H   0  0  0  0  0
   30.1160   19.3940   62.9010 H   0  0  0  0  0
   30.1960   16.8970   62.9660 H   0  0  0  0  0
   30.3620   16.8400   61.2040 H   0  0  0  0  0
   32.5860   17.9250   61.3440 H   0  0  0  0  0
   32.5390   16.4850   62.3850 H   0  0  0  0  0
   32.4170   18.1040   63.1110 H   0  0  0  0  0
   23.5890   14.4420   60.0850 H   0  0  0  0  0
   24.2590   15.8690   60.6710 H   0  0  0  0  0
   22.9210   12.8010   61.4900 H   0  0  0  0  0
   23.0640   12.9690   63.1580 H   0  0  0  0  0
   23.8020   14.8570   64.0410 H   0  0  0  0  0
  1  4  1  0  0  0
  1  3  2  0  0  0
  1  2  1  0  0  0
  4 13  1  0  0  0
  4  5  2  0  0  0
  5  6  1  0  0  0
  5 25  1  0  0  0
  6 21  1  0  0  0
  6  7  2  0  0  0
  7 12  1  0  0  0
  7  8  1  0  0  0
  8  9  1  0  0  0
  8 26  1  0  0  0
  9 11  1  0  0  0
  9 10  2  0  0  0
 11 27  1  0  0  0
 11 28  1  0  0  0
 11 29  1  0  0  0
 12 14  1  0  0  0
 12 13  1  0  0  0
 12 30  1  0  0  0
 14 16  1  0  0  0
 14 15  2  0  0  0
 16 18  1  0  0  0
 16 17  1  0  0  0
 17 31  1  0  0  0
 17 32  1  0  0  0
 17 33  1  0  0  0
 18 19  1  0  0  0
 18 34  1  0  0  0
 18 35  1  0  0  0
 19 20  1  0  0  0
 19 36  1  0  0  0
 19 37  1  0  0  0
 20 38  1  0  0  0
 20 39  1  0  0  0
 20 40  1  0  0  0
 21 22  2  0  0  0
 21 45  1  0  0  0
 22 24  1  0  0  0
 22 23  1  0  0  0
 23 41  1  0  0  0
 23 42  1  0  0  0
 24 43  1  0  0  0
 24 44  1  0  0  0
M  END
