ZINC03833964
  -OEChem-08230709403D

 42 43  0     1  0  0  0  0  0999 V2000
   -3.6092   -1.1795   -0.4792 C   0  0  0  0  0  0  0  0  0  0  0  0
   -2.2233   -0.6529   -0.7490 C   0  0  0  0  0  0  0  0  0  0  0  0
   -1.8979   -0.3523   -1.8780 O   0  0  0  0  0  0  0  0  0  0  0  0
   -1.3453   -0.5160    0.2643 N   0  0  0  0  0  0  0  0  0  0  0  0
    0.0021   -0.0041    0.0020 C   0  0  2  0  0  0  0  0  0  0  0  0
    0.3465   -0.3603   -0.9688 H   0  0  0  0  0  0  0  0  0  0  0  0
    0.9585   -0.4841    1.1005 C   0  0  2  0  0  0  0  0  0  0  0  0
    0.7013   -0.0049    2.0451 H   0  0  0  0  0  0  0  0  0  0  0  0
    2.3859   -0.1027    0.7026 C   0  0  0  0  0  0  0  0  0  0  0  0
    2.4433    1.3446    0.3090 C   0  0  0  0  0  0  0  0  0  0  0  0
    1.3834    2.0616   -0.0001 C   0  0  0  0  0  0  0  0  0  0  0  0
   -0.0187    1.5258    0.0104 C   0  0  1  0  0  0  0  0  0  0  0  0
   -0.5324    1.8753    0.9060 H   0  0  0  0  0  0  0  0  0  0  0  0
   -0.7144    1.9965   -1.1456 O   0  0  0  0  0  0  0  0  0  0  0  0
   -1.3811    3.2459   -0.9542 C   0  0  0  0  0  0  0  0  0  0  0  0
   -2.0775    3.6443   -2.2299 C   0  0  0  0  0  0  0  0  0  0  0  0
   -1.4141    4.4119   -3.1688 C   0  0  0  0  0  0  0  0  0  0  0  0
   -2.0514    4.7737   -4.3409 C   0  0  0  0  0  0  0  0  0  0  0  0
   -3.3552    4.3755   -4.5700 C   0  0  0  0  0  0  0  0  0  0  0  0
   -4.0203    3.6124   -3.6288 C   0  0  0  0  0  0  0  0  0  0  0  0
   -3.3816    3.2469   -2.4586 C   0  0  0  0  0  0  0  0  0  0  0  0
    3.7584    1.9989    0.2662 C   0  0  0  0  0  0  0  0  0  0  0  0
    3.8447    3.1697   -0.0481 O   0  0  0  0  0  0  0  0  0  0  0  0
   -4.2767   -0.3475   -0.2549 H   0  0  0  0  0  0  0  0  0  0  0  0
   -3.9736   -1.7108   -1.3584 H   0  0  0  0  0  0  0  0  0  0  0  0
   -3.5798   -1.8611    0.3709 H   0  0  0  0  0  0  0  0  0  0  0  0
   -1.6055   -0.7564    1.1673 H   0  0  0  0  0  0  0  0  0  0  0  0
    3.0543   -0.2745    1.5463 H   0  0  0  0  0  0  0  0  0  0  0  0
    2.7025   -0.7172   -0.1402 H   0  0  0  0  0  0  0  0  0  0  0  0
    1.5312    3.0949   -0.2772 H   0  0  0  0  0  0  0  0  0  0  0  0
   -2.1156    3.1470   -0.1549 H   0  0  0  0  0  0  0  0  0  0  0  0
   -0.6515    4.0095   -0.6848 H   0  0  0  0  0  0  0  0  0  0  0  0
   -0.3967    4.7261   -2.9881 H   0  0  0  0  0  0  0  0  0  0  0  0
   -1.5316    5.3696   -5.0765 H   0  0  0  0  0  0  0  0  0  0  0  0
   -3.8540    4.6604   -5.4846 H   0  0  0  0  0  0  0  0  0  0  0  0
   -5.0390    3.3013   -3.8078 H   0  0  0  0  0  0  0  0  0  0  0  0
   -3.9013    2.6507   -1.7232 H   0  0  0  0  0  0  0  0  0  0  0  0
    1.4801   -2.2816    1.9582 H   0  0  0  0  0  0  0  0  0  0  0  0
   -0.0935   -2.2242    1.4228 H   0  0  0  0  0  0  0  0  0  0  0  0
    4.8691    1.3004    0.5755 O   0  5  0  0  0  0  0  0  0  0  0  0
    0.8657   -1.9502    1.2163 N   0  3  0  0  0  0  0  0  0  0  0  0
    1.1524   -2.3778    0.3279 H   0  0  0  0  0  0  0  0  0  0  0  0
  1  2  1  0  0  0  0
  1 24  1  0  0  0  0
  1 25  1  0  0  0  0
  1 26  1  0  0  0  0
  2  3  2  0  0  0  0
  2  4  1  0  0  0  0
  4  5  1  0  0  0  0
  4 27  1  0  0  0  0
  5  6  1  0  0  0  0
  5 12  1  0  0  0  0
  5  7  1  0  0  0  0
  7  8  1  0  0  0  0
  7  9  1  0  0  0  0
  7 41  1  0  0  0  0
  9 10  1  0  0  0  0
  9 28  1  0  0  0  0
  9 29  1  0  0  0  0
 10 11  2  0  0  0  0
 10 22  1  0  0  0  0
 11 12  1  0  0  0  0
 11 30  1  0  0  0  0
 12 13  1  0  0  0  0
 12 14  1  0  0  0  0
 14 15  1  0  0  0  0
 15 16  1  0  0  0  0
 15 31  1  0  0  0  0
 15 32  1  0  0  0  0
 16 21  2  0  0  0  0
 16 17  1  0  0  0  0
 17 18  2  0  0  0  0
 17 33  1  0  0  0  0
 18 19  1  0  0  0  0
 18 34  1  0  0  0  0
 19 20  2  0  0  0  0
 19 35  1  0  0  0  0
 20 21  1  0  0  0  0
 20 36  1  0  0  0  0
 21 37  1  0  0  0  0
 22 23  2  0  0  0  0
 22 40  1  0  0  0  0
 38 41  1  0  0  0  0
 39 41  1  0  0  0  0
 41 42  1  0  0  0  0
M  CHG  2  40  -1  41   1
M  END
$$$$
