ZINC03833965
  -OEChem-08230709403D

 54 55  0     1  0  0  0  0  0999 V2000
   -3.2926    5.4577   -4.5409 C   0  0  0  0  0  0  0  0  0  0  0  0
   -3.4696    3.9589   -4.2891 C   0  0  0  0  0  0  0  0  0  0  0  0
   -3.7245    3.7186   -2.7998 C   0  0  1  0  0  0  0  0  0  0  0  0
   -4.5764    4.3165   -2.4758 H   0  0  0  0  0  0  0  0  0  0  0  0
   -4.0237    2.2364   -2.5663 C   0  0  0  0  0  0  0  0  0  0  0  0
   -4.4341    2.0225   -1.1080 C   0  0  0  0  0  0  0  0  0  0  0  0
   -4.7123    0.5600   -0.8738 C   0  0  0  0  0  0  0  0  0  0  0  0
   -5.9881    0.0609   -1.0587 C   0  0  0  0  0  0  0  0  0  0  0  0
   -6.2423   -1.2815   -0.8485 C   0  0  0  0  0  0  0  0  0  0  0  0
   -5.2228   -2.1229   -0.4437 C   0  0  0  0  0  0  0  0  0  0  0  0
   -3.9483   -1.6226   -0.2533 C   0  0  0  0  0  0  0  0  0  0  0  0
   -3.6930   -0.2812   -0.4685 C   0  0  0  0  0  0  0  0  0  0  0  0
   -2.5666    4.0945   -2.0515 O   0  0  0  0  0  0  0  0  0  0  0  0
   -2.8589    4.6434   -0.7649 C   0  0  2  0  0  0  0  0  0  0  0  0
   -3.6960    4.1028   -0.3232 H   0  0  0  0  0  0  0  0  0  0  0  0
   -3.2275    6.0908   -0.9135 C   0  0  0  0  0  0  0  0  0  0  0  0
   -2.8005    7.0411   -0.1088 C   0  0  0  0  0  0  0  0  0  0  0  0
   -1.8833    6.7999    1.0546 C   0  0  0  0  0  0  0  0  0  0  0  0
   -1.8717    5.3134    1.4167 C   0  0  1  0  0  0  0  0  0  0  0  0
   -2.8315    5.0350    1.8518 H   0  0  0  0  0  0  0  0  0  0  0  0
   -1.6313    4.5024    0.1374 C   0  0  1  0  0  0  0  0  0  0  0  0
   -0.7506    4.8824   -0.3804 H   0  0  0  0  0  0  0  0  0  0  0  0
   -1.4309    3.0920    0.4791 N   0  0  0  0  0  0  0  0  0  0  0  0
   -0.1865    2.6205    0.6924 C   0  0  0  0  0  0  0  0  0  0  0  0
    0.7679    3.3627    0.5965 O   0  0  0  0  0  0  0  0  0  0  0  0
    0.0196    1.1696    1.0439 C   0  0  0  0  0  0  0  0  0  0  0  0
   -3.2480    8.4174   -0.3640 C   0  0  0  0  0  0  0  0  0  0  0  0
   -3.9913    8.6516   -1.2966 O   0  0  0  0  0  0  0  0  0  0  0  0
   -2.3931    5.8075   -4.0343 H   0  0  0  0  0  0  0  0  0  0  0  0
   -3.1998    5.6377   -5.6119 H   0  0  0  0  0  0  0  0  0  0  0  0
   -4.1590    5.9956   -4.1558 H   0  0  0  0  0  0  0  0  0  0  0  0
   -2.5661    3.4303   -4.5930 H   0  0  0  0  0  0  0  0  0  0  0  0
   -4.3175    3.5911   -4.8669 H   0  0  0  0  0  0  0  0  0  0  0  0
   -4.8355    1.9218   -3.2221 H   0  0  0  0  0  0  0  0  0  0  0  0
   -3.1325    1.6473   -2.7830 H   0  0  0  0  0  0  0  0  0  0  0  0
   -3.6271    2.3484   -0.4518 H   0  0  0  0  0  0  0  0  0  0  0  0
   -5.3324    2.6019   -0.8946 H   0  0  0  0  0  0  0  0  0  0  0  0
   -6.7854    0.7190   -1.3710 H   0  0  0  0  0  0  0  0  0  0  0  0
   -7.2381   -1.6723   -0.9969 H   0  0  0  0  0  0  0  0  0  0  0  0
   -5.4222   -3.1710   -0.2759 H   0  0  0  0  0  0  0  0  0  0  0  0
   -3.1520   -2.2799    0.0633 H   0  0  0  0  0  0  0  0  0  0  0  0
   -2.6973    0.1096   -0.3197 H   0  0  0  0  0  0  0  0  0  0  0  0
   -3.8803    6.3686   -1.7277 H   0  0  0  0  0  0  0  0  0  0  0  0
   -0.8739    7.1154    0.7904 H   0  0  0  0  0  0  0  0  0  0  0  0
   -2.2290    7.3762    1.9128 H   0  0  0  0  0  0  0  0  0  0  0  0
   -2.1939    2.4975    0.5519 H   0  0  0  0  0  0  0  0  0  0  0  0
   -0.0098    1.0505    2.1270 H   0  0  0  0  0  0  0  0  0  0  0  0
   -0.7701    0.5703    0.5909 H   0  0  0  0  0  0  0  0  0  0  0  0
    0.9878    0.8387    0.6681 H   0  0  0  0  0  0  0  0  0  0  0  0
   -0.9318    5.5725    3.2300 H   0  0  0  0  0  0  0  0  0  0  0  0
   -0.7154    4.0609    2.5712 H   0  0  0  0  0  0  0  0  0  0  0  0
   -0.7740    5.0569    2.3657 N   0  3  0  0  0  0  0  0  0  0  0  0
    0.1119    5.3656    1.9485 H   0  0  0  0  0  0  0  0  0  0  0  0
   -2.8341    9.4200    0.4363 O   0  5  0  0  0  0  0  0  0  0  0  0
  1  2  1  0  0  0  0
  1 29  1  0  0  0  0
  1 30  1  0  0  0  0
  1 31  1  0  0  0  0
  2  3  1  0  0  0  0
  2 32  1  0  0  0  0
  2 33  1  0  0  0  0
  3  4  1  0  0  0  0
  3  5  1  0  0  0  0
  3 13  1  0  0  0  0
  5  6  1  0  0  0  0
  5 34  1  0  0  0  0
  5 35  1  0  0  0  0
  6  7  1  0  0  0  0
  6 36  1  0  0  0  0
  6 37  1  0  0  0  0
  7 12  2  0  0  0  0
  7  8  1  0  0  0  0
  8  9  2  0  0  0  0
  8 38  1  0  0  0  0
  9 10  1  0  0  0  0
  9 39  1  0  0  0  0
 10 11  2  0  0  0  0
 10 40  1  0  0  0  0
 11 12  1  0  0  0  0
 11 41  1  0  0  0  0
 12 42  1  0  0  0  0
 13 14  1  0  0  0  0
 14 15  1  0  0  0  0
 14 21  1  0  0  0  0
 14 16  1  0  0  0  0
 16 17  2  0  0  0  0
 16 43  1  0  0  0  0
 17 18  1  0  0  0  0
 17 27  1  0  0  0  0
 18 19  1  0  0  0  0
 18 44  1  0  0  0  0
 18 45  1  0  0  0  0
 19 20  1  0  0  0  0
 19 21  1  0  0  0  0
 19 52  1  0  0  0  0
 21 22  1  0  0  0  0
 21 23  1  0  0  0  0
 23 24  1  0  0  0  0
 23 46  1  0  0  0  0
 24 25  2  0  0  0  0
 24 26  1  0  0  0  0
 26 47  1  0  0  0  0
 26 48  1  0  0  0  0
 26 49  1  0  0  0  0
 27 28  2  0  0  0  0
 27 54  1  0  0  0  0
 50 52  1  0  0  0  0
 51 52  1  0  0  0  0
 52 53  1  0  0  0  0
M  CHG  2  52   1  54  -1
M  END
$$$$
