2qwe/ligand
 OpenBabel04140820253D

 43 43  0  0  0  0  0  0  0  0999 V2000
   23.5560   19.6710   64.4300 C   0  0  0  0  0
   24.2640   18.6760   63.7760 C   0  0  0  0  0
   23.6550   17.6280   63.1810 C   0  0  0  0  0
   24.3960   16.6050   62.4510 C   0  0  0  0  0
   25.9450   16.6810   62.6390 C   0  0  0  0  0
   26.3790   18.1720   62.7410 C   0  0  0  0  0
   27.8980   18.3750   63.0170 C   0  0  0  0  0
   28.3230   19.8720   63.0930 C   0  0  0  0  0
   29.8400   20.0830   63.3340 C   0  0  0  0  0
   27.2550   14.8820   61.5590 C   0  0  0  0  0
   27.8070   14.3800   60.3240 C   0  0  0  0  0
   26.5940   16.0300   61.5370 N   0  0  0  0  0
   23.9350   15.3190   62.8800 N   0  0  0  0  0
   23.5820   14.2720   62.1020 C   0  0  0  0  0
   23.6270   14.2730   60.7610 N   0  0  0  0  0
   23.1770   13.1520   62.7140 N   0  0  0  0  0
   24.2030   20.7210   64.9840 O   0  0  0  0  0
   22.2070   19.6450   64.5650 O   0  0  0  0  0
   25.6140   18.7860   63.8050 O   0  0  0  0  0
   28.2620   17.7150   64.2300 O   0  0  0  0  0
   27.9550   20.5560   61.8960 O   0  0  0  0  0
   30.6370   19.5580   62.2750 O   0  0  0  0  0
   27.3650   14.2160   62.5840 O   0  0  0  0  0
   22.6620   17.5770   63.1620 H   0  0  0  0  0
   24.1630   16.7730   61.3950 H   0  0  0  0  0
   26.2030   16.2020   63.5900 H   0  0  0  0  0
   26.1310   18.6730   61.7980 H   0  0  0  0  0
   28.4560   17.9020   62.2060 H   0  0  0  0  0
   27.7850   20.3470   63.9170 H   0  0  0  0  0
   30.0480   21.1530   63.4110 H   0  0  0  0  0
   30.1480   19.6150   64.2700 H   0  0  0  0  0
   27.0130   14.2530   59.5820 H   0  0  0  0  0
   28.3030   13.4150   60.4680 H   0  0  0  0  0
   28.5430   15.0900   59.9350 H   0  0  0  0  0
   26.5090   16.4660   60.6740 H   0  0  0  0  0
   23.3740   13.4770   60.2690 H   0  0  0  0  0
   23.9250   15.0600   60.2800 H   0  0  0  0  0
   22.9270   12.3750   62.1940 H   0  0  0  0  0
   23.1270   13.1210   63.6820 H   0  0  0  0  0
   27.7620   18.1770   64.9330 H   0  0  0  0  0
   28.4480   20.1030   61.1790 H   0  0  0  0  0
   30.4920   18.5880   62.3030 H   0  0  0  0  0
   23.9060   15.1690   63.8380 H   0  0  0  0  0
  1 18  2  0  0  0
  1 17  1  0  0  0
  1  2  1  0  0  0
  2 19  1  0  0  0
  2  3  2  0  0  0
  3  4  1  0  0  0
  3 24  1  0  0  0
  4 13  1  0  0  0
  4  5  1  0  0  0
  4 25  1  0  0  0
  5 12  1  0  0  0
  5  6  1  0  0  0
  5 26  1  0  0  0
  6 19  1  0  0  0
  6  7  1  0  0  0
  6 27  1  0  0  0
  7 20  1  0  0  0
  7  8  1  0  0  0
  7 28  1  0  0  0
  8 21  1  0  0  0
  8  9  1  0  0  0
  8 29  1  0  0  0
  9 22  1  0  0  0
  9 30  1  0  0  0
  9 31  1  0  0  0
 12 10  1  0  0  0
 10 23  2  0  0  0
 10 11  1  0  0  0
 11 32  1  0  0  0
 11 33  1  0  0  0
 11 34  1  0  0  0
 12 35  1  0  0  0
 13 14  2  0  0  0
 13 43  1  0  0  0
 14 16  1  0  0  0
 14 15  1  0  0  0
 15 36  1  0  0  0
 15 37  1  0  0  0
 16 38  1  0  0  0
 16 39  1  0  0  0
 20 40  1  0  0  0
 21 41  1  0  0  0
 22 42  1  0  0  0
M  END
