ZINC01703370
  -OEChem-08230709403D

 39 39  0     1  0  0  0  0  0999 V2000
    3.2791   -2.7126   -1.5303 C   0  0  0  0  0  0  0  0  0  0  0  0
    2.5495   -2.1794   -0.3243 C   0  0  0  0  0  0  0  0  0  0  0  0
    1.7315   -2.8711    0.2444 O   0  0  0  0  0  0  0  0  0  0  0  0
    2.8059   -0.9339    0.1222 N   0  0  0  0  0  0  0  0  0  0  0  0
    2.0966   -0.4155    1.2946 C   0  0  1  0  0  0  0  0  0  0  0  0
    1.0774   -0.8017    1.3050 H   0  0  0  0  0  0  0  0  0  0  0  0
    2.8239   -0.8557    2.5688 C   0  0  1  0  0  0  0  0  0  0  0  0
    3.8581   -0.5130    2.5368 H   0  0  0  0  0  0  0  0  0  0  0  0
    2.1187   -0.2438    3.7832 C   0  0  0  0  0  0  0  0  0  0  0  0
    2.0848    1.2790    3.6302 C   0  0  2  0  0  0  0  0  0  0  0  0
    1.4223    1.6192    2.4105 O   0  0  0  0  0  0  0  0  0  0  0  0
    2.0636    1.1140    1.2377 C   0  0  2  0  0  0  0  0  0  0  0  0
    3.0824    1.4981    1.1863 H   0  0  0  0  0  0  0  0  0  0  0  0
    1.2864    1.5618   -0.0018 C   0  0  2  0  0  0  0  0  0  0  0  0
    1.8231    1.2523   -0.8987 H   0  0  0  0  0  0  0  0  0  0  0  0
    1.1449    3.0852    0.0077 C   0  0  2  0  0  0  0  0  0  0  0  0
    0.6082    3.3946    0.9045 H   0  0  0  0  0  0  0  0  0  0  0  0
    0.3677    3.5330   -1.2318 C   0  0  0  0  0  0  0  0  0  0  0  0
    0.1344    4.9412   -1.1648 O   0  0  0  0  0  0  0  0  0  0  0  0
    2.4423    3.6841   -0.0015 O   0  0  0  0  0  0  0  0  0  0  0  0
   -0.0110    0.9628    0.0073 O   0  0  0  0  0  0  0  0  0  0  0  0
    3.4937    1.8131    3.6027 C   0  0  0  0  0  0  0  0  0  0  0  0
    3.8619    2.4991    2.6787 O   0  0  0  0  0  0  0  0  0  0  0  0
    1.3789    1.8531    4.7321 O   0  0  0  0  0  0  0  0  0  0  0  0
    2.7954   -2.2810    2.6674 O   0  0  0  0  0  0  0  0  0  0  0  0
    4.3511   -2.7191   -1.3329 H   0  0  0  0  0  0  0  0  0  0  0  0
    2.9420   -3.7278   -1.7394 H   0  0  0  0  0  0  0  0  0  0  0  0
    3.0720   -2.0764   -2.3909 H   0  0  0  0  0  0  0  0  0  0  0  0
    3.4601   -0.3806   -0.3326 H   0  0  0  0  0  0  0  0  0  0  0  0
    2.6622   -0.5067    4.6907 H   0  0  0  0  0  0  0  0  0  0  0  0
    1.0999   -0.6266    3.8439 H   0  0  0  0  0  0  0  0  0  0  0  0
    0.9464    3.3027   -2.1263 H   0  0  0  0  0  0  0  0  0  0  0  0
   -0.5868    3.0081   -1.2714 H   0  0  0  0  0  0  0  0  0  0  0  0
   -0.3548    5.2952   -1.9200 H   0  0  0  0  0  0  0  0  0  0  0  0
    2.9772    3.4520   -0.7729 H   0  0  0  0  0  0  0  0  0  0  0  0
    0.0021   -0.0041    0.0020 H   0  0  0  0  0  0  0  0  0  0  0  0
    1.3175    2.8177    4.7003 H   0  0  0  0  0  0  0  0  0  0  0  0
    3.2329   -2.6295    3.4562 H   0  0  0  0  0  0  0  0  0  0  0  0
    4.3397    1.5267    4.6047 O   0  5  0  0  0  0  0  0  0  0  0  0
  1  2  1  0  0  0  0
  1 26  1  0  0  0  0
  1 27  1  0  0  0  0
  1 28  1  0  0  0  0
  2  3  2  0  0  0  0
  2  4  1  0  0  0  0
  4  5  1  0  0  0  0
  4 29  1  0  0  0  0
  5  6  1  0  0  0  0
  5 12  1  0  0  0  0
  5  7  1  0  0  0  0
  7  8  1  0  0  0  0
  7  9  1  0  0  0  0
  7 25  1  0  0  0  0
  9 10  1  0  0  0  0
  9 30  1  0  0  0  0
  9 31  1  0  0  0  0
 10 11  1  0  0  0  0
 10 22  1  0  0  0  0
 10 24  1  0  0  0  0
 11 12  1  0  0  0  0
 12 13  1  0  0  0  0
 12 14  1  0  0  0  0
 14 15  1  0  0  0  0
 14 16  1  0  0  0  0
 14 21  1  0  0  0  0
 16 17  1  0  0  0  0
 16 18  1  0  0  0  0
 16 20  1  0  0  0  0
 18 19  1  0  0  0  0
 18 32  1  0  0  0  0
 18 33  1  0  0  0  0
 19 34  1  0  0  0  0
 20 35  1  0  0  0  0
 21 36  1  0  0  0  0
 22 23  2  0  0  0  0
 22 39  1  0  0  0  0
 24 37  1  0  0  0  0
 25 38  1  0  0  0  0
M  CHG  1  39  -1
M  END
$$$$
