ZINC04617757
  -OEChem-08230709403D

 49 52  0     1  0  0  0  0  0999 V2000
   -2.8796    1.3134    0.0722 C   0  0  0  0  0  0  0  0  0  0  0  0
   -2.5317   -0.1508    0.1504 C   0  0  0  0  0  0  0  0  0  0  0  0
   -3.4058   -1.1547    0.3575 C   0  0  0  0  0  0  0  0  0  0  0  0
   -2.6961   -2.4355    0.3769 C   0  0  0  0  0  0  0  0  0  0  0  0
   -3.1260   -3.7539    0.5579 C   0  0  0  0  0  0  0  0  0  0  0  0
   -2.2100   -4.7852    0.5258 C   0  0  0  0  0  0  0  0  0  0  0  0
   -0.8613   -4.5270    0.3155 C   0  0  0  0  0  0  0  0  0  0  0  0
   -0.4174   -3.2336    0.1340 C   0  0  0  0  0  0  0  0  0  0  0  0
   -1.3247   -2.1797    0.1632 C   0  0  0  0  0  0  0  0  0  0  0  0
   -1.1861   -0.7175    0.0094 C   0  0  0  0  0  0  0  0  0  0  0  0
   -0.0193   -0.0208   -0.2166 C   0  0  0  0  0  0  0  0  0  0  0  0
   -0.0716    1.3960   -0.5798 C   0  0  0  0  0  0  0  0  0  0  0  0
   -0.9716    1.8383   -1.5613 C   0  0  0  0  0  0  0  0  0  0  0  0
   -1.0204    3.1614   -1.8927 C   0  0  0  0  0  0  0  0  0  0  0  0
   -0.1705    4.0712   -1.2655 C   0  0  0  0  0  0  0  0  0  0  0  0
    0.7294    3.6359   -0.2939 C   0  0  0  0  0  0  0  0  0  0  0  0
    0.7820    2.3156    0.0483 C   0  0  0  0  0  0  0  0  0  0  0  0
   -0.2335    5.7770   -1.7027 S   0  0  0  0  0  0  0  0  0  0  0  0
   -1.5235    5.8564   -2.9756 C   0  0  0  0  0  0  0  0  0  0  0  0
   -2.6285   -6.0578    0.7010 F   0  0  0  0  0  0  0  0  0  0  0  0
   -4.8909   -0.9845    0.5485 C   0  0  0  0  0  0  0  0  0  0  0  0
   -5.5926   -1.1786   -0.7709 C   0  0  0  0  0  0  0  0  0  0  0  0
   -4.9496   -1.4305   -1.7690 O   0  0  0  0  0  0  0  0  0  0  0  0
   -7.0476   -1.0633   -0.8488 C   0  0  2  0  0  0  0  0  0  0  0  0
   -7.8077   -1.2123   -1.9923 C   0  0  0  0  0  0  0  0  0  0  0  0
   -9.2456   -1.0079   -1.5738 C   0  0  0  0  0  0  0  0  0  0  0  0
   -9.2200   -0.7316   -0.1469 O   0  0  0  0  0  0  0  0  0  0  0  0
   -7.9435   -0.7640    0.2732 C   0  0  0  0  0  0  0  0  0  0  0  0
   -7.5834   -0.5724    1.4183 O   0  0  0  0  0  0  0  0  0  0  0  0
   -7.3599   -1.4859   -3.2263 O   0  0  0  0  0  0  0  0  0  0  0  0
   -3.1061    1.5784   -0.9605 H   0  0  0  0  0  0  0  0  0  0  0  0
   -3.7493    1.5141    0.6980 H   0  0  0  0  0  0  0  0  0  0  0  0
   -2.0351    1.9067    0.4227 H   0  0  0  0  0  0  0  0  0  0  0  0
   -4.1725   -3.9644    0.7221 H   0  0  0  0  0  0  0  0  0  0  0  0
   -0.1558   -5.3444    0.2932 H   0  0  0  0  0  0  0  0  0  0  0  0
    0.6323   -3.0397   -0.0301 H   0  0  0  0  0  0  0  0  0  0  0  0
    0.9340   -0.5201   -0.1257 H   0  0  0  0  0  0  0  0  0  0  0  0
   -1.6275    1.1335   -2.0506 H   0  0  0  0  0  0  0  0  0  0  0  0
   -1.7159    3.5034   -2.6448 H   0  0  0  0  0  0  0  0  0  0  0  0
    1.3859    4.3445    0.1892 H   0  0  0  0  0  0  0  0  0  0  0  0
    1.4793    1.9793    0.8014 H   0  0  0  0  0  0  0  0  0  0  0  0
   -1.2410    5.2264   -3.8190 H   0  0  0  0  0  0  0  0  0  0  0  0
   -2.4672    5.5041   -2.5590 H   0  0  0  0  0  0  0  0  0  0  0  0
   -1.6376    6.8864   -3.3135 H   0  0  0  0  0  0  0  0  0  0  0  0
   -5.2522   -1.7229    1.2642 H   0  0  0  0  0  0  0  0  0  0  0  0
   -5.0962    0.0175    0.9253 H   0  0  0  0  0  0  0  0  0  0  0  0
   -9.8281   -1.9080   -1.7705 H   0  0  0  0  0  0  0  0  0  0  0  0
   -9.6725   -0.1612   -2.1115 H   0  0  0  0  0  0  0  0  0  0  0  0
   -6.9283   -2.0532   -0.9252 H   0  0  0  0  0  0  0  0  0  0  0  0
  1  2  1  0  0  0  0
  1 31  1  0  0  0  0
  1 32  1  0  0  0  0
  1 33  1  0  0  0  0
  2 10  1  0  0  0  0
  2  3  2  0  0  0  0
  3  4  1  0  0  0  0
  3 21  1  0  0  0  0
  4  9  2  0  0  0  0
  4  5  1  0  0  0  0
  5  6  2  0  0  0  0
  5 34  1  0  0  0  0
  6  7  1  0  0  0  0
  6 20  1  0  0  0  0
  7  8  2  0  0  0  0
  7 35  1  0  0  0  0
  8  9  1  0  0  0  0
  8 36  1  0  0  0  0
  9 10  1  0  0  0  0
 10 11  2  0  0  0  0
 11 12  1  0  0  0  0
 11 37  1  0  0  0  0
 12 17  2  0  0  0  0
 12 13  1  0  0  0  0
 13 14  2  0  0  0  0
 13 38  1  0  0  0  0
 14 15  1  0  0  0  0
 14 39  1  0  0  0  0
 15 16  2  0  0  0  0
 15 18  1  0  0  0  0
 16 17  1  0  0  0  0
 16 40  1  0  0  0  0
 17 41  1  0  0  0  0
 18 19  1  0  0  0  0
 19 42  1  0  0  0  0
 19 43  1  0  0  0  0
 19 44  1  0  0  0  0
 21 22  1  0  0  0  0
 21 45  1  0  0  0  0
 21 46  1  0  0  0  0
 22 24  1  0  0  0  0
 22 23  2  0  0  0  0
 24 49  1  0  0  0  0
 24 28  1  0  0  0  0
 24 25  1  0  0  0  0
 25 26  1  0  0  0  0
 25 30  2  0  0  0  0
 26 27  1  0  0  0  0
 26 47  1  0  0  0  0
 26 48  1  0  0  0  0
 27 28  1  0  0  0  0
 28 29  2  0  0  0  0
M  END
$$$$
