ZINC03814695
  -OEChem-08230709403D

 45 48  0     0  0  0  0  0  0999 V2000
    0.7692    4.1410    0.6277 C   0  0  0  0  0  0  0  0  0  0  0  0
    1.7763    5.0862    0.6221 C   0  0  0  0  0  0  0  0  0  0  0  0
    1.5669    6.3183    0.0302 C   0  0  0  0  0  0  0  0  0  0  0  0
    0.3510    6.6064   -0.5621 C   0  0  0  0  0  0  0  0  0  0  0  0
   -0.6582    5.6636   -0.5645 C   0  0  0  0  0  0  0  0  0  0  0  0
   -0.4510    4.4252    0.0287 C   0  0  0  0  0  0  0  0  0  0  0  0
   -1.4725    3.4668    0.0279 N   0  0  0  0  0  0  0  0  0  0  0  0
   -1.3332    2.1408   -0.2683 C   0  0  0  0  0  0  0  0  0  0  0  0
   -2.5691    1.5676   -0.1557 C   0  0  0  0  0  0  0  0  0  0  0  0
   -3.4696    2.5635    0.2236 C   0  0  0  0  0  0  0  0  0  0  0  0
   -2.8209    3.6958    0.3306 N   0  0  0  0  0  0  0  0  0  0  0  0
   -4.9447    2.3696    0.4637 C   0  0  0  0  0  0  0  0  0  0  0  0
   -5.5440    3.6095    0.7102 F   0  0  0  0  0  0  0  0  0  0  0  0
   -5.5282    1.7860   -0.6660 F   0  0  0  0  0  0  0  0  0  0  0  0
   -5.1312    1.5334    1.5696 F   0  0  0  0  0  0  0  0  0  0  0  0
   -0.0795    1.4540   -0.6466 C   0  0  0  0  0  0  0  0  0  0  0  0
    0.9574    2.1697   -1.2489 C   0  0  0  0  0  0  0  0  0  0  0  0
    2.1114    1.5134   -1.6050 C   0  0  0  0  0  0  0  0  0  0  0  0
    2.2546    0.1430   -1.3734 C   0  0  0  0  0  0  0  0  0  0  0  0
    1.2360   -0.5729   -0.7684 C   0  0  0  0  0  0  0  0  0  0  0  0
    0.0691    0.0917   -0.4093 C   0  0  0  0  0  0  0  0  0  0  0  0
    1.2966   -2.0375   -0.4482 C   0  0  0  0  0  0  0  0  0  0  0  0
    2.2787   -2.8117   -1.3094 C   0  0  0  0  0  0  0  0  0  0  0  0
    3.6919   -2.2548   -1.0829 C   0  0  0  0  0  0  0  0  0  0  0  0
    3.7600   -0.6253   -1.8844 S   0  0  0  0  0  0  0  0  0  0  0  0
    2.8519    7.5238    0.0312 S   0  0  0  0  0  0  0  0  0  0  0  0
    4.0751    6.8135    0.1675 O   0  0  0  0  0  0  0  0  0  0  0  0
    2.5939    8.3934   -1.0627 O   0  0  0  0  0  0  0  0  0  0  0  0
    2.6739    8.4282    1.4069 N   0  0  0  0  0  0  0  0  0  0  0  0
    0.9318    3.1806    1.0941 H   0  0  0  0  0  0  0  0  0  0  0  0
    2.7267    4.8644    1.0845 H   0  0  0  0  0  0  0  0  0  0  0  0
    0.1903    7.5698   -1.0230 H   0  0  0  0  0  0  0  0  0  0  0  0
   -1.6077    5.8893   -1.0270 H   0  0  0  0  0  0  0  0  0  0  0  0
   -2.8060    0.5281   -0.3280 H   0  0  0  0  0  0  0  0  0  0  0  0
    0.8535    3.2287   -1.4334 H   0  0  0  0  0  0  0  0  0  0  0  0
    2.9168    2.0634   -2.0688 H   0  0  0  0  0  0  0  0  0  0  0  0
   -0.7332   -0.4575    0.0611 H   0  0  0  0  0  0  0  0  0  0  0  0
    1.5832   -2.1537    0.5970 H   0  0  0  0  0  0  0  0  0  0  0  0
    0.3030   -2.4648   -0.5833 H   0  0  0  0  0  0  0  0  0  0  0  0
    2.2537   -3.8658   -1.0331 H   0  0  0  0  0  0  0  0  0  0  0  0
    2.0077   -2.7023   -2.3595 H   0  0  0  0  0  0  0  0  0  0  0  0
    3.8838   -2.1517   -0.0149 H   0  0  0  0  0  0  0  0  0  0  0  0
    4.4297   -2.9210   -1.5300 H   0  0  0  0  0  0  0  0  0  0  0  0
    3.4511    8.8247    1.8307 H   0  0  0  0  0  0  0  0  0  0  0  0
    1.7923    8.5614    1.7891 H   0  0  0  0  0  0  0  0  0  0  0  0
  1  6  2  0  0  0  0
  1  2  1  0  0  0  0
  1 30  1  0  0  0  0
  2  3  2  0  0  0  0
  2 31  1  0  0  0  0
  3  4  1  0  0  0  0
  3 26  1  0  0  0  0
  4  5  2  0  0  0  0
  4 32  1  0  0  0  0
  5  6  1  0  0  0  0
  5 33  1  0  0  0  0
  6  7  1  0  0  0  0
  7 11  1  0  0  0  0
  7  8  1  0  0  0  0
  8  9  2  0  0  0  0
  8 16  1  0  0  0  0
  9 10  1  0  0  0  0
  9 34  1  0  0  0  0
 10 11  2  0  0  0  0
 10 12  1  0  0  0  0
 12 13  1  0  0  0  0
 12 14  1  0  0  0  0
 12 15  1  0  0  0  0
 16 21  2  0  0  0  0
 16 17  1  0  0  0  0
 17 18  2  0  0  0  0
 17 35  1  0  0  0  0
 18 19  1  0  0  0  0
 18 36  1  0  0  0  0
 19 25  1  0  0  0  0
 19 20  2  0  0  0  0
 20 21  1  0  0  0  0
 20 22  1  0  0  0  0
 21 37  1  0  0  0  0
 22 23  1  0  0  0  0
 22 38  1  0  0  0  0
 22 39  1  0  0  0  0
 23 24  1  0  0  0  0
 23 40  1  0  0  0  0
 23 41  1  0  0  0  0
 24 25  1  0  0  0  0
 24 42  1  0  0  0  0
 24 43  1  0  0  0  0
 26 27  2  0  0  0  0
 26 28  2  0  0  0  0
 26 29  1  0  0  0  0
 29 44  1  0  0  0  0
 29 45  1  0  0  0  0
M  END
$$$$
