ZINC03814687
  -OEChem-08230709403D

 42 44  0     0  0  0  0  0  0999 V2000
    3.8139    4.8935    5.8543 C   0  0  0  0  0  0  0  0  0  0  0  0
    2.7145    5.5678    6.5492 N   0  0  0  0  0  0  0  0  0  0  0  0
    1.4037    5.1147    6.3871 C   0  0  0  0  0  0  0  0  0  0  0  0
    1.1435    4.0232    5.5664 C   0  0  0  0  0  0  0  0  0  0  0  0
   -0.1486    3.5705    5.4081 C   0  0  0  0  0  0  0  0  0  0  0  0
   -1.1983    4.2152    6.0647 C   0  0  0  0  0  0  0  0  0  0  0  0
   -0.9349    5.3106    6.8886 C   0  0  0  0  0  0  0  0  0  0  0  0
    0.3607    5.7560    7.0475 C   0  0  0  0  0  0  0  0  0  0  0  0
    0.6901    7.1183    8.0719 Cl  0  0  0  0  0  0  0  0  0  0  0  0
   -2.5863    3.7346    5.8925 C   0  0  0  0  0  0  0  0  0  0  0  0
   -3.6107    3.8793    6.7859 C   0  0  0  0  0  0  0  0  0  0  0  0
   -4.7449    3.2802    6.2370 C   0  0  0  0  0  0  0  0  0  0  0  0
   -4.4345    2.7950    5.0611 N   0  0  0  0  0  0  0  0  0  0  0  0
   -3.0833    3.0660    4.8103 N   0  0  0  0  0  0  0  0  0  0  0  0
   -2.3688    2.7100    3.6592 C   0  0  0  0  0  0  0  0  0  0  0  0
   -2.4971    1.4335    3.1277 C   0  0  0  0  0  0  0  0  0  0  0  0
   -1.7909    1.0854    1.9929 C   0  0  0  0  0  0  0  0  0  0  0  0
   -0.9568    2.0064    1.3861 C   0  0  0  0  0  0  0  0  0  0  0  0
   -0.8229    3.2767    1.9160 C   0  0  0  0  0  0  0  0  0  0  0  0
   -1.5304    3.6326    3.0475 C   0  0  0  0  0  0  0  0  0  0  0  0
   -0.0572    1.5582   -0.0611 S   0  0  0  0  0  0  0  0  0  0  0  0
    0.0681    0.1429   -0.0393 O   0  0  0  0  0  0  0  0  0  0  0  0
    1.0695    2.4219   -0.1226 O   0  0  0  0  0  0  0  0  0  0  0  0
   -1.0096    1.9291   -1.3641 N   0  0  0  0  0  0  0  0  0  0  0  0
   -6.1013    3.2036    6.8892 C   0  0  0  0  0  0  0  0  0  0  0  0
   -6.9577    2.4333    6.0952 F   0  0  0  0  0  0  0  0  0  0  0  0
   -5.9791    2.6134    8.1517 F   0  0  0  0  0  0  0  0  0  0  0  0
   -6.6263    4.4931    7.0261 F   0  0  0  0  0  0  0  0  0  0  0  0
    3.8555    3.8500    6.1668 H   0  0  0  0  0  0  0  0  0  0  0  0
    3.6490    4.9442    4.7781 H   0  0  0  0  0  0  0  0  0  0  0  0
    4.7553    5.3844    6.1012 H   0  0  0  0  0  0  0  0  0  0  0  0
    2.8972    6.3291    7.1218 H   0  0  0  0  0  0  0  0  0  0  0  0
    1.9553    3.5268    5.0555 H   0  0  0  0  0  0  0  0  0  0  0  0
   -0.3493    2.7201    4.7733 H   0  0  0  0  0  0  0  0  0  0  0  0
   -1.7446    5.8090    7.4008 H   0  0  0  0  0  0  0  0  0  0  0  0
   -3.5516    4.3672    7.7476 H   0  0  0  0  0  0  0  0  0  0  0  0
   -3.1481    0.7136    3.6013 H   0  0  0  0  0  0  0  0  0  0  0  0
   -1.8906    0.0929    1.5788 H   0  0  0  0  0  0  0  0  0  0  0  0
   -0.1675    3.9925    1.4422 H   0  0  0  0  0  0  0  0  0  0  0  0
   -1.4285    4.6261    3.4585 H   0  0  0  0  0  0  0  0  0  0  0  0
   -1.2818    1.2310   -1.9802 H   0  0  0  0  0  0  0  0  0  0  0  0
   -1.2953    2.8443   -1.5112 H   0  0  0  0  0  0  0  0  0  0  0  0
  1  2  1  0  0  0  0
  1 29  1  0  0  0  0
  1 30  1  0  0  0  0
  1 31  1  0  0  0  0
  2  3  1  0  0  0  0
  2 32  1  0  0  0  0
  3  8  2  0  0  0  0
  3  4  1  0  0  0  0
  4  5  2  0  0  0  0
  4 33  1  0  0  0  0
  5  6  1  0  0  0  0
  5 34  1  0  0  0  0
  6  7  2  0  0  0  0
  6 10  1  0  0  0  0
  7  8  1  0  0  0  0
  7 35  1  0  0  0  0
  8  9  1  0  0  0  0
 10 14  1  0  0  0  0
 10 11  2  0  0  0  0
 11 12  1  0  0  0  0
 11 36  1  0  0  0  0
 12 13  2  0  0  0  0
 12 25  1  0  0  0  0
 13 14  1  0  0  0  0
 14 15  1  0  0  0  0
 15 20  2  0  0  0  0
 15 16  1  0  0  0  0
 16 17  2  0  0  0  0
 16 37  1  0  0  0  0
 17 18  1  0  0  0  0
 17 38  1  0  0  0  0
 18 19  2  0  0  0  0
 18 21  1  0  0  0  0
 19 20  1  0  0  0  0
 19 39  1  0  0  0  0
 20 40  1  0  0  0  0
 21 22  2  0  0  0  0
 21 23  2  0  0  0  0
 21 24  1  0  0  0  0
 24 41  1  0  0  0  0
 24 42  1  0  0  0  0
 25 26  1  0  0  0  0
 25 27  1  0  0  0  0
 25 28  1  0  0  0  0
M  END
$$$$
